version 2
run Mobility40Nodes2-0-20200528-22:00:17-15970
attr configname Mobility40Nodes2
attr datetime 20200528-22:00:17
attr experiment Mobility40Nodes2
attr inifile omnetpp.ini
attr iterationvars ""
attr iterationvarsf ""
attr measurement ""
attr network FloodingNetwork
attr processid 15970
attr repetition 0
attr replication #0
attr resultdir results
attr runnumber 0
attr seedset 0
param **.nodeCount 40
param **.host[30].app[0].srcAddr "\"host[30]\""
param **.host[31].app[0].srcAddr "\"host[31]\""
param **.host[32].app[0].srcAddr "\"host[32]\""
param **.host[33].app[0].srcAddr "\"host[33]\""
param **.host[34].app[0].srcAddr "\"host[34]\""
param **.host[35].app[0].srcAddr "\"host[35]\""
param **.host[36].app[0].srcAddr "\"host[36]\""
param **.host[37].app[0].srcAddr "\"host[37]\""
param **.host[38].app[0].srcAddr "\"host[38]\""
param **.host[39].app[0].srcAddr "\"host[39]\""
param **.host[0..8].app[0].sendInterval 0.01s
param **.host[10..39].app[0].sendInterval 0.01s
param **.host[0..8].app[0].destAddr "\"host[9]\""
param **.host[10..39].app[0].destAddr "\"host[9]\""
param *.host[*].mobility.typename "\"LinearMobility\""
param **.mobility.speed 40mps
param **.host[10].mobility.initialX 290m
param **.host[11].mobility.initialX 290m
param **.host[12].mobility.initialX 170m
param **.host[13].mobility.initialX 170m
param **.host[14].mobility.initialX 170m
param **.host[15].mobility.initialX 200m
param **.host[16].mobility.initialX 230m
param **.host[17].mobility.initialX 260m
param **.host[18].mobility.initialX 290m
param **.host[19].mobility.initialX 170m
param **.host[20].mobility.initialX 170m
param **.host[21].mobility.initialX 200m
param **.host[22].mobility.initialX 230m
param **.host[23].mobility.initialX 260m
param **.host[24].mobility.initialX 290m
param **.host[25].mobility.initialX 275m
param **.host[26].mobility.initialX 245m
param **.host[27].mobility.initialX 230m
param **.host[28].mobility.initialX 215m
param **.host[29].mobility.initialX 185m
param **.host[30].mobility.initialX 170m
param **.host[31].mobility.initialX 200m
param **.host[32].mobility.initialX 230m
param **.host[33].mobility.initialX 260m
param **.host[34].mobility.initialX 290m
param **.host[35].mobility.initialX 275m
param **.host[36].mobility.initialX 245m
param **.host[37].mobility.initialX 230m
param **.host[38].mobility.initialX 215m
param **.host[39].mobility.initialX 185m
param **.host[10].mobility.initialY 180m
param **.host[11].mobility.initialY 220m
param **.host[12].mobility.initialY 180m
param **.host[13].mobility.initialY 200m
param **.host[14].mobility.initialY 220m
param **.host[15].mobility.initialY 240m
param **.host[16].mobility.initialY 240m
param **.host[17].mobility.initialY 240m
param **.host[18].mobility.initialY 240m
param **.host[19].mobility.initialY 240m
param **.host[20].mobility.initialY 260m
param **.host[21].mobility.initialY 260m
param **.host[22].mobility.initialY 260m
param **.host[23].mobility.initialY 260m
param **.host[24].mobility.initialY 260m
param **.host[25].mobility.initialY 160m
param **.host[26].mobility.initialY 150m
param **.host[27].mobility.initialY 130m
param **.host[28].mobility.initialY 150m
param **.host[29].mobility.initialY 160m
param **.host[30].mobility.initialY 280m
param **.host[31].mobility.initialY 280m
param **.host[32].mobility.initialY 280m
param **.host[33].mobility.initialY 280m
param **.host[34].mobility.initialY 280m
param **.host[35].mobility.initialY 300m
param **.host[36].mobility.initialY 310m
param **.host[37].mobility.initialY 330m
param **.host[38].mobility.initialY 310m
param **.host[39].mobility.initialY 300m
param **.constraintAreaMaxX 480m
param **.constraintAreaMaxY 420m
param **.constraintAreaMaxZ 0m
param **.constraintAreaMinX 0m
param **.constraintAreaMinY 0m
param **.constraintAreaMinZ 0m
param **.host[*].app[1].localPort 9
param **.destPort 9
param **.numApps 2
param **.nodeCount 10
param **.hasGn true
param **.hasIpv4 false
param **.hasIpv6 false
param **.app[1].typename "\"UdpSink\""
param **.app[0].typename "\"PingApp\""
param **.app[*].networkProtocol "\"flooding\""
param **.host[0].app[0].srcAddr "\"host[0]\""
param **.host[1].app[0].srcAddr "\"host[1]\""
param **.host[2].app[0].srcAddr "\"host[2]\""
param **.host[3].app[0].srcAddr "\"host[3]\""
param **.host[4].app[0].srcAddr "\"host[4]\""
param **.host[5].app[0].srcAddr "\"host[5]\""
param **.host[6].app[0].srcAddr "\"host[6]\""
param **.host[7].app[0].srcAddr "\"host[7]\""
param **.host[8].app[0].srcAddr "\"host[8]\""
param **.host[9].app[0].srcAddr "\"host[9]\""
param **.host[0..8].app[0].sendInterval 1s
param **.host[0..8].app[0].destAddr "\"host[9]\""
param **.networkConfigurator.typename "\"Ipv4NetworkConfigurator\""
param **.generic.typename "\"SimpleNetworkLayer\""
param **.generic.np.typename "\"Flood\""
param **.generic.np.defaultTtl 5
param **.generic.np.headerLength 8B
param **.radioMedium.pathLoss.typename "\"LogNormalShadowing\""
param **.radioMedium.pathLoss.alpha 4.03
param **.radioMedium.pathLoss.sigma 4.98
param **.host[*].mobility.typename "\"StationaryMobility\""
param **.host[*].mobility.initFromDisplayString false
param **.host[*].mobility.initialZ 0m
param **.host[0].mobility.initialX 200m
param **.host[1].mobility.initialX 230m
param **.host[2].mobility.initialX 260m
param **.host[3].mobility.initialX 200m
param **.host[9].mobility.initialX 230m
param **.host[5].mobility.initialX 260m
param **.host[6].mobility.initialX 200m
param **.host[7].mobility.initialX 230m
param **.host[8].mobility.initialX 260m
param **.host[4].mobility.initialX 290m
param **.host[0].mobility.initialY 200m
param **.host[1].mobility.initialY 200m
param **.host[2].mobility.initialY 200m
param **.host[3].mobility.initialY 220m
param **.host[9].mobility.initialY 220m
param **.host[5].mobility.initialY 220m
param **.host[6].mobility.initialY 180m
param **.host[7].mobility.initialY 180m
param **.host[8].mobility.initialY 180m
param **.host[4].mobility.initialY 200m
param **.constraintAreaMaxX 500m
param **.constraintAreaMaxY 500m
param **.constraintAreaMaxZ 0m
param **.constraintAreaMinX 0m
param **.constraintAreaMinY 0m
param **.constraintAreaMinZ 0m
param **.wlan[*].bitrate 1Mbps
param **.wlan[*].radio.displayCommunicationRange true
param *.visualizer.mediumVisualizer.displaySignals true
param *.visualizer.physicalLinkVisualizer.displayLinks true
param *.visualizer.physicalLinkVisualizer.fadeOutTime 0.5s

vector 0 FloodingNetwork.host[0].wlan[0].radio radioMode:vector ETV
attr interpolationmode sample-hold
attr source radioModeChanged
attr title "Radio mode, vector"
vector 1 FloodingNetwork.host[0].wlan[0].radio radioChannel:vector ETV
attr interpolationmode sample-hold
attr source radioChannelChanged
attr title "Radio channel, vector"
vector 2 FloodingNetwork.host[1].wlan[0].radio radioMode:vector ETV
attr interpolationmode sample-hold
attr source radioModeChanged
attr title "Radio mode, vector"
vector 3 FloodingNetwork.host[1].wlan[0].radio radioChannel:vector ETV
attr interpolationmode sample-hold
attr source radioChannelChanged
attr title "Radio channel, vector"
vector 4 FloodingNetwork.host[2].wlan[0].radio radioMode:vector ETV
attr interpolationmode sample-hold
attr source radioModeChanged
attr title "Radio mode, vector"
vector 5 FloodingNetwork.host[2].wlan[0].radio radioChannel:vector ETV
attr interpolationmode sample-hold
attr source radioChannelChanged
attr title "Radio channel, vector"
vector 6 FloodingNetwork.host[3].wlan[0].radio radioMode:vector ETV
attr interpolationmode sample-hold
attr source radioModeChanged
attr title "Radio mode, vector"
vector 7 FloodingNetwork.host[3].wlan[0].radio radioChannel:vector ETV
attr interpolationmode sample-hold
attr source radioChannelChanged
attr title "Radio channel, vector"
vector 8 FloodingNetwork.host[4].wlan[0].radio radioMode:vector ETV
attr interpolationmode sample-hold
attr source radioModeChanged
attr title "Radio mode, vector"
vector 9 FloodingNetwork.host[4].wlan[0].radio radioChannel:vector ETV
attr interpolationmode sample-hold
attr source radioChannelChanged
attr title "Radio channel, vector"
vector 10 FloodingNetwork.host[5].wlan[0].radio radioMode:vector ETV
attr interpolationmode sample-hold
attr source radioModeChanged
attr title "Radio mode, vector"
vector 11 FloodingNetwork.host[5].wlan[0].radio radioChannel:vector ETV
attr interpolationmode sample-hold
attr source radioChannelChanged
attr title "Radio channel, vector"
vector 12 FloodingNetwork.host[6].wlan[0].radio radioMode:vector ETV
attr interpolationmode sample-hold
attr source radioModeChanged
attr title "Radio mode, vector"
vector 13 FloodingNetwork.host[6].wlan[0].radio radioChannel:vector ETV
attr interpolationmode sample-hold
attr source radioChannelChanged
attr title "Radio channel, vector"
vector 14 FloodingNetwork.host[7].wlan[0].radio radioMode:vector ETV
attr interpolationmode sample-hold
attr source radioModeChanged
attr title "Radio mode, vector"
vector 15 FloodingNetwork.host[7].wlan[0].radio radioChannel:vector ETV
attr interpolationmode sample-hold
attr source radioChannelChanged
attr title "Radio channel, vector"
vector 16 FloodingNetwork.host[8].wlan[0].radio radioMode:vector ETV
attr interpolationmode sample-hold
attr source radioModeChanged
attr title "Radio mode, vector"
vector 17 FloodingNetwork.host[8].wlan[0].radio radioChannel:vector ETV
attr interpolationmode sample-hold
attr source radioChannelChanged
attr title "Radio channel, vector"
vector 18 FloodingNetwork.host[9].wlan[0].radio radioMode:vector ETV
attr interpolationmode sample-hold
attr source radioModeChanged
attr title "Radio mode, vector"
vector 19 FloodingNetwork.host[9].wlan[0].radio radioChannel:vector ETV
attr interpolationmode sample-hold
attr source radioChannelChanged
attr title "Radio channel, vector"
vector 20 FloodingNetwork.host[10].wlan[0].radio radioMode:vector ETV
attr interpolationmode sample-hold
attr source radioModeChanged
attr title "Radio mode, vector"
vector 21 FloodingNetwork.host[10].wlan[0].radio radioChannel:vector ETV
attr interpolationmode sample-hold
attr source radioChannelChanged
attr title "Radio channel, vector"
vector 22 FloodingNetwork.host[11].wlan[0].radio radioMode:vector ETV
attr interpolationmode sample-hold
attr source radioModeChanged
attr title "Radio mode, vector"
vector 23 FloodingNetwork.host[11].wlan[0].radio radioChannel:vector ETV
attr interpolationmode sample-hold
attr source radioChannelChanged
attr title "Radio channel, vector"
vector 24 FloodingNetwork.host[12].wlan[0].radio radioMode:vector ETV
attr interpolationmode sample-hold
attr source radioModeChanged
attr title "Radio mode, vector"
vector 25 FloodingNetwork.host[12].wlan[0].radio radioChannel:vector ETV
attr interpolationmode sample-hold
attr source radioChannelChanged
attr title "Radio channel, vector"
vector 26 FloodingNetwork.host[13].wlan[0].radio radioMode:vector ETV
attr interpolationmode sample-hold
attr source radioModeChanged
attr title "Radio mode, vector"
vector 27 FloodingNetwork.host[13].wlan[0].radio radioChannel:vector ETV
attr interpolationmode sample-hold
attr source radioChannelChanged
attr title "Radio channel, vector"
vector 28 FloodingNetwork.host[14].wlan[0].radio radioMode:vector ETV
attr interpolationmode sample-hold
attr source radioModeChanged
attr title "Radio mode, vector"
vector 29 FloodingNetwork.host[14].wlan[0].radio radioChannel:vector ETV
attr interpolationmode sample-hold
attr source radioChannelChanged
attr title "Radio channel, vector"
vector 30 FloodingNetwork.host[15].wlan[0].radio radioMode:vector ETV
attr interpolationmode sample-hold
attr source radioModeChanged
attr title "Radio mode, vector"
vector 31 FloodingNetwork.host[15].wlan[0].radio radioChannel:vector ETV
attr interpolationmode sample-hold
attr source radioChannelChanged
attr title "Radio channel, vector"
vector 32 FloodingNetwork.host[16].wlan[0].radio radioMode:vector ETV
attr interpolationmode sample-hold
attr source radioModeChanged
attr title "Radio mode, vector"
vector 33 FloodingNetwork.host[16].wlan[0].radio radioChannel:vector ETV
attr interpolationmode sample-hold
attr source radioChannelChanged
attr title "Radio channel, vector"
vector 34 FloodingNetwork.host[17].wlan[0].radio radioMode:vector ETV
attr interpolationmode sample-hold
attr source radioModeChanged
attr title "Radio mode, vector"
vector 35 FloodingNetwork.host[17].wlan[0].radio radioChannel:vector ETV
attr interpolationmode sample-hold
attr source radioChannelChanged
attr title "Radio channel, vector"
vector 36 FloodingNetwork.host[18].wlan[0].radio radioMode:vector ETV
attr interpolationmode sample-hold
attr source radioModeChanged
attr title "Radio mode, vector"
vector 37 FloodingNetwork.host[18].wlan[0].radio radioChannel:vector ETV
attr interpolationmode sample-hold
attr source radioChannelChanged
attr title "Radio channel, vector"
vector 38 FloodingNetwork.host[19].wlan[0].radio radioMode:vector ETV
attr interpolationmode sample-hold
attr source radioModeChanged
attr title "Radio mode, vector"
vector 39 FloodingNetwork.host[19].wlan[0].radio radioChannel:vector ETV
attr interpolationmode sample-hold
attr source radioChannelChanged
attr title "Radio channel, vector"
vector 40 FloodingNetwork.host[20].wlan[0].radio radioMode:vector ETV
attr interpolationmode sample-hold
attr source radioModeChanged
attr title "Radio mode, vector"
vector 41 FloodingNetwork.host[20].wlan[0].radio radioChannel:vector ETV
attr interpolationmode sample-hold
attr source radioChannelChanged
attr title "Radio channel, vector"
vector 42 FloodingNetwork.host[21].wlan[0].radio radioMode:vector ETV
attr interpolationmode sample-hold
attr source radioModeChanged
attr title "Radio mode, vector"
vector 43 FloodingNetwork.host[21].wlan[0].radio radioChannel:vector ETV
attr interpolationmode sample-hold
attr source radioChannelChanged
attr title "Radio channel, vector"
vector 44 FloodingNetwork.host[22].wlan[0].radio radioMode:vector ETV
attr interpolationmode sample-hold
attr source radioModeChanged
attr title "Radio mode, vector"
vector 45 FloodingNetwork.host[22].wlan[0].radio radioChannel:vector ETV
attr interpolationmode sample-hold
attr source radioChannelChanged
attr title "Radio channel, vector"
vector 46 FloodingNetwork.host[23].wlan[0].radio radioMode:vector ETV
attr interpolationmode sample-hold
attr source radioModeChanged
attr title "Radio mode, vector"
vector 47 FloodingNetwork.host[23].wlan[0].radio radioChannel:vector ETV
attr interpolationmode sample-hold
attr source radioChannelChanged
attr title "Radio channel, vector"
vector 48 FloodingNetwork.host[24].wlan[0].radio radioMode:vector ETV
attr interpolationmode sample-hold
attr source radioModeChanged
attr title "Radio mode, vector"
vector 49 FloodingNetwork.host[24].wlan[0].radio radioChannel:vector ETV
attr interpolationmode sample-hold
attr source radioChannelChanged
attr title "Radio channel, vector"
vector 50 FloodingNetwork.host[25].wlan[0].radio radioMode:vector ETV
attr interpolationmode sample-hold
attr source radioModeChanged
attr title "Radio mode, vector"
vector 51 FloodingNetwork.host[25].wlan[0].radio radioChannel:vector ETV
attr interpolationmode sample-hold
attr source radioChannelChanged
attr title "Radio channel, vector"
vector 52 FloodingNetwork.host[26].wlan[0].radio radioMode:vector ETV
attr interpolationmode sample-hold
attr source radioModeChanged
attr title "Radio mode, vector"
vector 53 FloodingNetwork.host[26].wlan[0].radio radioChannel:vector ETV
attr interpolationmode sample-hold
attr source radioChannelChanged
attr title "Radio channel, vector"
vector 54 FloodingNetwork.host[27].wlan[0].radio radioMode:vector ETV
attr interpolationmode sample-hold
attr source radioModeChanged
attr title "Radio mode, vector"
vector 55 FloodingNetwork.host[27].wlan[0].radio radioChannel:vector ETV
attr interpolationmode sample-hold
attr source radioChannelChanged
attr title "Radio channel, vector"
vector 56 FloodingNetwork.host[28].wlan[0].radio radioMode:vector ETV
attr interpolationmode sample-hold
attr source radioModeChanged
attr title "Radio mode, vector"
vector 57 FloodingNetwork.host[28].wlan[0].radio radioChannel:vector ETV
attr interpolationmode sample-hold
attr source radioChannelChanged
attr title "Radio channel, vector"
vector 58 FloodingNetwork.host[29].wlan[0].radio radioMode:vector ETV
attr interpolationmode sample-hold
attr source radioModeChanged
attr title "Radio mode, vector"
vector 59 FloodingNetwork.host[29].wlan[0].radio radioChannel:vector ETV
attr interpolationmode sample-hold
attr source radioChannelChanged
attr title "Radio channel, vector"
vector 60 FloodingNetwork.host[30].wlan[0].radio radioMode:vector ETV
attr interpolationmode sample-hold
attr source radioModeChanged
attr title "Radio mode, vector"
vector 61 FloodingNetwork.host[30].wlan[0].radio radioChannel:vector ETV
attr interpolationmode sample-hold
attr source radioChannelChanged
attr title "Radio channel, vector"
vector 62 FloodingNetwork.host[31].wlan[0].radio radioMode:vector ETV
attr interpolationmode sample-hold
attr source radioModeChanged
attr title "Radio mode, vector"
vector 63 FloodingNetwork.host[31].wlan[0].radio radioChannel:vector ETV
attr interpolationmode sample-hold
attr source radioChannelChanged
attr title "Radio channel, vector"
vector 64 FloodingNetwork.host[32].wlan[0].radio radioMode:vector ETV
attr interpolationmode sample-hold
attr source radioModeChanged
attr title "Radio mode, vector"
vector 65 FloodingNetwork.host[32].wlan[0].radio radioChannel:vector ETV
attr interpolationmode sample-hold
attr source radioChannelChanged
attr title "Radio channel, vector"
vector 66 FloodingNetwork.host[33].wlan[0].radio radioMode:vector ETV
attr interpolationmode sample-hold
attr source radioModeChanged
attr title "Radio mode, vector"
vector 67 FloodingNetwork.host[33].wlan[0].radio radioChannel:vector ETV
attr interpolationmode sample-hold
attr source radioChannelChanged
attr title "Radio channel, vector"
vector 68 FloodingNetwork.host[34].wlan[0].radio radioMode:vector ETV
attr interpolationmode sample-hold
attr source radioModeChanged
attr title "Radio mode, vector"
vector 69 FloodingNetwork.host[34].wlan[0].radio radioChannel:vector ETV
attr interpolationmode sample-hold
attr source radioChannelChanged
attr title "Radio channel, vector"
vector 70 FloodingNetwork.host[35].wlan[0].radio radioMode:vector ETV
attr interpolationmode sample-hold
attr source radioModeChanged
attr title "Radio mode, vector"
vector 71 FloodingNetwork.host[35].wlan[0].radio radioChannel:vector ETV
attr interpolationmode sample-hold
attr source radioChannelChanged
attr title "Radio channel, vector"
vector 72 FloodingNetwork.host[36].wlan[0].radio radioMode:vector ETV
attr interpolationmode sample-hold
attr source radioModeChanged
attr title "Radio mode, vector"
vector 73 FloodingNetwork.host[36].wlan[0].radio radioChannel:vector ETV
attr interpolationmode sample-hold
attr source radioChannelChanged
attr title "Radio channel, vector"
vector 74 FloodingNetwork.host[37].wlan[0].radio radioMode:vector ETV
attr interpolationmode sample-hold
attr source radioModeChanged
attr title "Radio mode, vector"
vector 75 FloodingNetwork.host[37].wlan[0].radio radioChannel:vector ETV
attr interpolationmode sample-hold
attr source radioChannelChanged
attr title "Radio channel, vector"
vector 76 FloodingNetwork.host[38].wlan[0].radio radioMode:vector ETV
attr interpolationmode sample-hold
attr source radioModeChanged
attr title "Radio mode, vector"
vector 77 FloodingNetwork.host[38].wlan[0].radio radioChannel:vector ETV
attr interpolationmode sample-hold
attr source radioChannelChanged
attr title "Radio channel, vector"
vector 78 FloodingNetwork.host[39].wlan[0].radio radioMode:vector ETV
attr interpolationmode sample-hold
attr source radioModeChanged
attr title "Radio mode, vector"
vector 79 FloodingNetwork.host[39].wlan[0].radio radioChannel:vector ETV
attr interpolationmode sample-hold
attr source radioChannelChanged
attr title "Radio channel, vector"
vector 80 FloodingNetwork.host[0].wlan[0].radio receptionState:vector ETV
attr interpolationmode sample-hold
attr source receptionStateChanged
attr title "Radio reception state, vector"
vector 81 FloodingNetwork.host[1].wlan[0].radio receptionState:vector ETV
attr interpolationmode sample-hold
attr source receptionStateChanged
attr title "Radio reception state, vector"
vector 82 FloodingNetwork.host[2].wlan[0].radio receptionState:vector ETV
attr interpolationmode sample-hold
attr source receptionStateChanged
attr title "Radio reception state, vector"
vector 83 FloodingNetwork.host[3].wlan[0].radio receptionState:vector ETV
attr interpolationmode sample-hold
attr source receptionStateChanged
attr title "Radio reception state, vector"
vector 84 FloodingNetwork.host[4].wlan[0].radio receptionState:vector ETV
attr interpolationmode sample-hold
attr source receptionStateChanged
attr title "Radio reception state, vector"
vector 85 FloodingNetwork.host[5].wlan[0].radio receptionState:vector ETV
attr interpolationmode sample-hold
attr source receptionStateChanged
attr title "Radio reception state, vector"
vector 86 FloodingNetwork.host[6].wlan[0].radio receptionState:vector ETV
attr interpolationmode sample-hold
attr source receptionStateChanged
attr title "Radio reception state, vector"
vector 87 FloodingNetwork.host[7].wlan[0].radio receptionState:vector ETV
attr interpolationmode sample-hold
attr source receptionStateChanged
attr title "Radio reception state, vector"
vector 88 FloodingNetwork.host[8].wlan[0].radio receptionState:vector ETV
attr interpolationmode sample-hold
attr source receptionStateChanged
attr title "Radio reception state, vector"
vector 89 FloodingNetwork.host[9].wlan[0].radio receptionState:vector ETV
attr interpolationmode sample-hold
attr source receptionStateChanged
attr title "Radio reception state, vector"
vector 90 FloodingNetwork.host[10].wlan[0].radio receptionState:vector ETV
attr interpolationmode sample-hold
attr source receptionStateChanged
attr title "Radio reception state, vector"
vector 91 FloodingNetwork.host[11].wlan[0].radio receptionState:vector ETV
attr interpolationmode sample-hold
attr source receptionStateChanged
attr title "Radio reception state, vector"
vector 92 FloodingNetwork.host[12].wlan[0].radio receptionState:vector ETV
attr interpolationmode sample-hold
attr source receptionStateChanged
attr title "Radio reception state, vector"
vector 93 FloodingNetwork.host[13].wlan[0].radio receptionState:vector ETV
attr interpolationmode sample-hold
attr source receptionStateChanged
attr title "Radio reception state, vector"
vector 94 FloodingNetwork.host[14].wlan[0].radio receptionState:vector ETV
attr interpolationmode sample-hold
attr source receptionStateChanged
attr title "Radio reception state, vector"
vector 95 FloodingNetwork.host[15].wlan[0].radio receptionState:vector ETV
attr interpolationmode sample-hold
attr source receptionStateChanged
attr title "Radio reception state, vector"
vector 96 FloodingNetwork.host[16].wlan[0].radio receptionState:vector ETV
attr interpolationmode sample-hold
attr source receptionStateChanged
attr title "Radio reception state, vector"
vector 97 FloodingNetwork.host[17].wlan[0].radio receptionState:vector ETV
attr interpolationmode sample-hold
attr source receptionStateChanged
attr title "Radio reception state, vector"
vector 98 FloodingNetwork.host[18].wlan[0].radio receptionState:vector ETV
attr interpolationmode sample-hold
attr source receptionStateChanged
attr title "Radio reception state, vector"
vector 99 FloodingNetwork.host[19].wlan[0].radio receptionState:vector ETV
attr interpolationmode sample-hold
attr source receptionStateChanged
attr title "Radio reception state, vector"
vector 100 FloodingNetwork.host[20].wlan[0].radio receptionState:vector ETV
attr interpolationmode sample-hold
attr source receptionStateChanged
attr title "Radio reception state, vector"
vector 101 FloodingNetwork.host[21].wlan[0].radio receptionState:vector ETV
attr interpolationmode sample-hold
attr source receptionStateChanged
attr title "Radio reception state, vector"
vector 102 FloodingNetwork.host[22].wlan[0].radio receptionState:vector ETV
attr interpolationmode sample-hold
attr source receptionStateChanged
attr title "Radio reception state, vector"
vector 103 FloodingNetwork.host[23].wlan[0].radio receptionState:vector ETV
attr interpolationmode sample-hold
attr source receptionStateChanged
attr title "Radio reception state, vector"
vector 104 FloodingNetwork.host[24].wlan[0].radio receptionState:vector ETV
attr interpolationmode sample-hold
attr source receptionStateChanged
attr title "Radio reception state, vector"
vector 105 FloodingNetwork.host[25].wlan[0].radio receptionState:vector ETV
attr interpolationmode sample-hold
attr source receptionStateChanged
attr title "Radio reception state, vector"
vector 106 FloodingNetwork.host[26].wlan[0].radio receptionState:vector ETV
attr interpolationmode sample-hold
attr source receptionStateChanged
attr title "Radio reception state, vector"
vector 107 FloodingNetwork.host[27].wlan[0].radio receptionState:vector ETV
attr interpolationmode sample-hold
attr source receptionStateChanged
attr title "Radio reception state, vector"
vector 108 FloodingNetwork.host[28].wlan[0].radio receptionState:vector ETV
attr interpolationmode sample-hold
attr source receptionStateChanged
attr title "Radio reception state, vector"
vector 109 FloodingNetwork.host[29].wlan[0].radio receptionState:vector ETV
attr interpolationmode sample-hold
attr source receptionStateChanged
attr title "Radio reception state, vector"
vector 110 FloodingNetwork.host[30].wlan[0].radio receptionState:vector ETV
attr interpolationmode sample-hold
attr source receptionStateChanged
attr title "Radio reception state, vector"
vector 111 FloodingNetwork.host[31].wlan[0].radio receptionState:vector ETV
attr interpolationmode sample-hold
attr source receptionStateChanged
attr title "Radio reception state, vector"
vector 112 FloodingNetwork.host[32].wlan[0].radio receptionState:vector ETV
attr interpolationmode sample-hold
attr source receptionStateChanged
attr title "Radio reception state, vector"
vector 113 FloodingNetwork.host[33].wlan[0].radio receptionState:vector ETV
attr interpolationmode sample-hold
attr source receptionStateChanged
attr title "Radio reception state, vector"
vector 114 FloodingNetwork.host[34].wlan[0].radio receptionState:vector ETV
attr interpolationmode sample-hold
attr source receptionStateChanged
attr title "Radio reception state, vector"
vector 115 FloodingNetwork.host[35].wlan[0].radio receptionState:vector ETV
attr interpolationmode sample-hold
attr source receptionStateChanged
attr title "Radio reception state, vector"
vector 116 FloodingNetwork.host[36].wlan[0].radio receptionState:vector ETV
attr interpolationmode sample-hold
attr source receptionStateChanged
attr title "Radio reception state, vector"
vector 117 FloodingNetwork.host[37].wlan[0].radio receptionState:vector ETV
attr interpolationmode sample-hold
attr source receptionStateChanged
attr title "Radio reception state, vector"
vector 118 FloodingNetwork.host[38].wlan[0].radio receptionState:vector ETV
attr interpolationmode sample-hold
attr source receptionStateChanged
attr title "Radio reception state, vector"
vector 119 FloodingNetwork.host[39].wlan[0].radio receptionState:vector ETV
attr interpolationmode sample-hold
attr source receptionStateChanged
attr title "Radio reception state, vector"
vector 120 FloodingNetwork.host[0].wlan[0].mac.dcf.recoveryProcedure contentionWindowChanged:vector ETV
attr interpolationmode sample-hold
attr title "contention window, vector"
vector 121 FloodingNetwork.host[1].wlan[0].mac.dcf.recoveryProcedure contentionWindowChanged:vector ETV
attr interpolationmode sample-hold
attr title "contention window, vector"
vector 122 FloodingNetwork.host[2].wlan[0].mac.dcf.recoveryProcedure contentionWindowChanged:vector ETV
attr interpolationmode sample-hold
attr title "contention window, vector"
vector 123 FloodingNetwork.host[3].wlan[0].mac.dcf.recoveryProcedure contentionWindowChanged:vector ETV
attr interpolationmode sample-hold
attr title "contention window, vector"
vector 124 FloodingNetwork.host[4].wlan[0].mac.dcf.recoveryProcedure contentionWindowChanged:vector ETV
attr interpolationmode sample-hold
attr title "contention window, vector"
vector 125 FloodingNetwork.host[5].wlan[0].mac.dcf.recoveryProcedure contentionWindowChanged:vector ETV
attr interpolationmode sample-hold
attr title "contention window, vector"
vector 126 FloodingNetwork.host[6].wlan[0].mac.dcf.recoveryProcedure contentionWindowChanged:vector ETV
attr interpolationmode sample-hold
attr title "contention window, vector"
vector 127 FloodingNetwork.host[7].wlan[0].mac.dcf.recoveryProcedure contentionWindowChanged:vector ETV
attr interpolationmode sample-hold
attr title "contention window, vector"
vector 128 FloodingNetwork.host[8].wlan[0].mac.dcf.recoveryProcedure contentionWindowChanged:vector ETV
attr interpolationmode sample-hold
attr title "contention window, vector"
vector 129 FloodingNetwork.host[9].wlan[0].mac.dcf.recoveryProcedure contentionWindowChanged:vector ETV
attr interpolationmode sample-hold
attr title "contention window, vector"
vector 130 FloodingNetwork.host[10].wlan[0].mac.dcf.recoveryProcedure contentionWindowChanged:vector ETV
attr interpolationmode sample-hold
attr title "contention window, vector"
vector 131 FloodingNetwork.host[11].wlan[0].mac.dcf.recoveryProcedure contentionWindowChanged:vector ETV
attr interpolationmode sample-hold
attr title "contention window, vector"
vector 132 FloodingNetwork.host[12].wlan[0].mac.dcf.recoveryProcedure contentionWindowChanged:vector ETV
attr interpolationmode sample-hold
attr title "contention window, vector"
vector 133 FloodingNetwork.host[13].wlan[0].mac.dcf.recoveryProcedure contentionWindowChanged:vector ETV
attr interpolationmode sample-hold
attr title "contention window, vector"
vector 134 FloodingNetwork.host[14].wlan[0].mac.dcf.recoveryProcedure contentionWindowChanged:vector ETV
attr interpolationmode sample-hold
attr title "contention window, vector"
vector 135 FloodingNetwork.host[15].wlan[0].mac.dcf.recoveryProcedure contentionWindowChanged:vector ETV
attr interpolationmode sample-hold
attr title "contention window, vector"
vector 136 FloodingNetwork.host[16].wlan[0].mac.dcf.recoveryProcedure contentionWindowChanged:vector ETV
attr interpolationmode sample-hold
attr title "contention window, vector"
vector 137 FloodingNetwork.host[17].wlan[0].mac.dcf.recoveryProcedure contentionWindowChanged:vector ETV
attr interpolationmode sample-hold
attr title "contention window, vector"
vector 138 FloodingNetwork.host[18].wlan[0].mac.dcf.recoveryProcedure contentionWindowChanged:vector ETV
attr interpolationmode sample-hold
attr title "contention window, vector"
vector 139 FloodingNetwork.host[19].wlan[0].mac.dcf.recoveryProcedure contentionWindowChanged:vector ETV
attr interpolationmode sample-hold
attr title "contention window, vector"
vector 140 FloodingNetwork.host[20].wlan[0].mac.dcf.recoveryProcedure contentionWindowChanged:vector ETV
attr interpolationmode sample-hold
attr title "contention window, vector"
vector 141 FloodingNetwork.host[21].wlan[0].mac.dcf.recoveryProcedure contentionWindowChanged:vector ETV
attr interpolationmode sample-hold
attr title "contention window, vector"
vector 142 FloodingNetwork.host[22].wlan[0].mac.dcf.recoveryProcedure contentionWindowChanged:vector ETV
attr interpolationmode sample-hold
attr title "contention window, vector"
vector 143 FloodingNetwork.host[23].wlan[0].mac.dcf.recoveryProcedure contentionWindowChanged:vector ETV
attr interpolationmode sample-hold
attr title "contention window, vector"
vector 144 FloodingNetwork.host[24].wlan[0].mac.dcf.recoveryProcedure contentionWindowChanged:vector ETV
attr interpolationmode sample-hold
attr title "contention window, vector"
vector 145 FloodingNetwork.host[25].wlan[0].mac.dcf.recoveryProcedure contentionWindowChanged:vector ETV
attr interpolationmode sample-hold
attr title "contention window, vector"
vector 146 FloodingNetwork.host[26].wlan[0].mac.dcf.recoveryProcedure contentionWindowChanged:vector ETV
attr interpolationmode sample-hold
attr title "contention window, vector"
vector 147 FloodingNetwork.host[27].wlan[0].mac.dcf.recoveryProcedure contentionWindowChanged:vector ETV
attr interpolationmode sample-hold
attr title "contention window, vector"
vector 148 FloodingNetwork.host[28].wlan[0].mac.dcf.recoveryProcedure contentionWindowChanged:vector ETV
attr interpolationmode sample-hold
attr title "contention window, vector"
vector 149 FloodingNetwork.host[29].wlan[0].mac.dcf.recoveryProcedure contentionWindowChanged:vector ETV
attr interpolationmode sample-hold
attr title "contention window, vector"
vector 150 FloodingNetwork.host[30].wlan[0].mac.dcf.recoveryProcedure contentionWindowChanged:vector ETV
attr interpolationmode sample-hold
attr title "contention window, vector"
vector 151 FloodingNetwork.host[31].wlan[0].mac.dcf.recoveryProcedure contentionWindowChanged:vector ETV
attr interpolationmode sample-hold
attr title "contention window, vector"
vector 152 FloodingNetwork.host[32].wlan[0].mac.dcf.recoveryProcedure contentionWindowChanged:vector ETV
attr interpolationmode sample-hold
attr title "contention window, vector"
vector 153 FloodingNetwork.host[33].wlan[0].mac.dcf.recoveryProcedure contentionWindowChanged:vector ETV
attr interpolationmode sample-hold
attr title "contention window, vector"
vector 154 FloodingNetwork.host[34].wlan[0].mac.dcf.recoveryProcedure contentionWindowChanged:vector ETV
attr interpolationmode sample-hold
attr title "contention window, vector"
vector 155 FloodingNetwork.host[35].wlan[0].mac.dcf.recoveryProcedure contentionWindowChanged:vector ETV
attr interpolationmode sample-hold
attr title "contention window, vector"
vector 156 FloodingNetwork.host[36].wlan[0].mac.dcf.recoveryProcedure contentionWindowChanged:vector ETV
attr interpolationmode sample-hold
attr title "contention window, vector"
vector 157 FloodingNetwork.host[37].wlan[0].mac.dcf.recoveryProcedure contentionWindowChanged:vector ETV
attr interpolationmode sample-hold
attr title "contention window, vector"
vector 158 FloodingNetwork.host[38].wlan[0].mac.dcf.recoveryProcedure contentionWindowChanged:vector ETV
attr interpolationmode sample-hold
attr title "contention window, vector"
vector 159 FloodingNetwork.host[39].wlan[0].mac.dcf.recoveryProcedure contentionWindowChanged:vector ETV
attr interpolationmode sample-hold
attr title "contention window, vector"
vector 160 FloodingNetwork.host[7].app[0] pingTxSeq:vector ETV
attr interpolationmode none
attr title "ping tx seq, vector"
vector 161 FloodingNetwork.host[7].wlan[0].mac packetReceivedFromUpper:vector(packetBytes) ETV
attr interpolationmode none
attr title "packets received from upper layer, vector(packetBytes)"
vector 162 FloodingNetwork.host[7].wlan[0].mac.dcf.channelAccess.pendingQueue packetPushed:vector(packetBytes) ETV
attr interpolationmode none
attr title "packet pushed, vector(packetBytes)"
vector 163 FloodingNetwork.host[7].wlan[0].mac.dcf.channelAccess.pendingQueue queueLength:vector ETV
attr interpolationmode sample-hold
attr source "count(packetPushed) - count(packetPopped) - count(packetRemoved) - count(packetDropped)"
attr title "queue length, vector"
vector 164 FloodingNetwork.host[7].wlan[0].mac.dcf.channelAccess.contention backoffPeriodGenerated:vector ETV
attr interpolationmode none
attr title "backoff periods, vector"
vector 165 FloodingNetwork.host[7].wlan[0].mac.dcf.channelAccess.contention backoffActive:vector ETV
attr interpolationmode sample-hold
attr source count(backoffStarted)-count(backoffStopped)
attr title "backoff active, vector"
vector 166 FloodingNetwork.host[7].wlan[0].mac.dcf.channelAccess.pendingQueue packetPopped:vector(packetBytes) ETV
attr interpolationmode none
attr title "packet popped, vector(packetBytes)"
vector 167 FloodingNetwork.host[7].wlan[0].mac.dcf.channelAccess.pendingQueue queueingTime:vector ETV
attr interpolationmode none
attr source queueingTime(packetPopped)
attr title "queueing times, vector"
attr unit s
vector 168 FloodingNetwork.host[7].wlan[0].mac.dcf.channelAccess.inProgressFrames queueLength:vector ETV
attr interpolationmode sample-hold
attr source "count(packetEnqueued) - count(packetDequeued)"
attr title "queue length, vector"
vector 169 FloodingNetwork.host[7].wlan[0].mac.dcf datarateSelected:vector ETV
attr interpolationmode none
attr title "datarates selected, vector"
vector 170 FloodingNetwork.host[7].wlan[0].mac packetSentToLower:vector(packetBytes) ETV
attr interpolationmode none
attr title "packets sent to lower layer, vector(packetBytes)"
vector 171 FloodingNetwork.host[7].wlan[0].mac.dcf frameSequenceActive:vector ETV
attr interpolationmode sample-hold
attr source count(frameSequenceStarted)-count(frameSequenceFinished)
attr title "frame sequence active, vector"
vector 172 FloodingNetwork.host[7].wlan[0].radio transmissionState:vector ETV
attr interpolationmode sample-hold
attr source transmissionStateChanged
attr title "Radio transmission state, vector"
vector 173 FloodingNetwork.host[28].app[0] pingTxSeq:vector ETV
attr interpolationmode none
attr title "ping tx seq, vector"
vector 174 FloodingNetwork.host[28].wlan[0].mac packetReceivedFromUpper:vector(packetBytes) ETV
attr interpolationmode none
attr title "packets received from upper layer, vector(packetBytes)"
vector 175 FloodingNetwork.host[28].wlan[0].mac.dcf.channelAccess.pendingQueue packetPushed:vector(packetBytes) ETV
attr interpolationmode none
attr title "packet pushed, vector(packetBytes)"
vector 176 FloodingNetwork.host[28].wlan[0].mac.dcf.channelAccess.pendingQueue queueLength:vector ETV
attr interpolationmode sample-hold
attr source "count(packetPushed) - count(packetPopped) - count(packetRemoved) - count(packetDropped)"
attr title "queue length, vector"
vector 177 FloodingNetwork.host[28].wlan[0].mac.dcf.channelAccess.contention backoffPeriodGenerated:vector ETV
attr interpolationmode none
attr title "backoff periods, vector"
vector 178 FloodingNetwork.host[28].wlan[0].mac.dcf.channelAccess.contention backoffActive:vector ETV
attr interpolationmode sample-hold
attr source count(backoffStarted)-count(backoffStopped)
attr title "backoff active, vector"
vector 179 FloodingNetwork.host[28].wlan[0].mac.dcf.channelAccess.pendingQueue packetPopped:vector(packetBytes) ETV
attr interpolationmode none
attr title "packet popped, vector(packetBytes)"
vector 180 FloodingNetwork.host[28].wlan[0].mac.dcf.channelAccess.pendingQueue queueingTime:vector ETV
attr interpolationmode none
attr source queueingTime(packetPopped)
attr title "queueing times, vector"
attr unit s
vector 181 FloodingNetwork.host[28].wlan[0].mac.dcf.channelAccess.inProgressFrames queueLength:vector ETV
attr interpolationmode sample-hold
attr source "count(packetEnqueued) - count(packetDequeued)"
attr title "queue length, vector"
vector 182 FloodingNetwork.host[28].wlan[0].mac.dcf datarateSelected:vector ETV
attr interpolationmode none
attr title "datarates selected, vector"
vector 183 FloodingNetwork.host[28].wlan[0].mac packetSentToLower:vector(packetBytes) ETV
attr interpolationmode none
attr title "packets sent to lower layer, vector(packetBytes)"
vector 184 FloodingNetwork.host[28].wlan[0].mac.dcf frameSequenceActive:vector ETV
attr interpolationmode sample-hold
attr source count(frameSequenceStarted)-count(frameSequenceFinished)
attr title "frame sequence active, vector"
vector 185 FloodingNetwork.host[28].wlan[0].radio transmissionState:vector ETV
attr interpolationmode sample-hold
attr source transmissionStateChanged
attr title "Radio transmission state, vector"
vector 186 FloodingNetwork.host[33].app[0] pingTxSeq:vector ETV
attr interpolationmode none
attr title "ping tx seq, vector"
vector 187 FloodingNetwork.host[33].wlan[0].mac packetReceivedFromUpper:vector(packetBytes) ETV
attr interpolationmode none
attr title "packets received from upper layer, vector(packetBytes)"
vector 188 FloodingNetwork.host[33].wlan[0].mac.dcf.channelAccess.pendingQueue packetPushed:vector(packetBytes) ETV
attr interpolationmode none
attr title "packet pushed, vector(packetBytes)"
vector 189 FloodingNetwork.host[33].wlan[0].mac.dcf.channelAccess.pendingQueue queueLength:vector ETV
attr interpolationmode sample-hold
attr source "count(packetPushed) - count(packetPopped) - count(packetRemoved) - count(packetDropped)"
attr title "queue length, vector"
vector 190 FloodingNetwork.host[33].wlan[0].mac.dcf.channelAccess.contention backoffPeriodGenerated:vector ETV
attr interpolationmode none
attr title "backoff periods, vector"
vector 191 FloodingNetwork.host[33].wlan[0].mac.dcf.channelAccess.contention backoffActive:vector ETV
attr interpolationmode sample-hold
attr source count(backoffStarted)-count(backoffStopped)
attr title "backoff active, vector"
vector 192 FloodingNetwork.host[33].wlan[0].mac.dcf.channelAccess.pendingQueue packetPopped:vector(packetBytes) ETV
attr interpolationmode none
attr title "packet popped, vector(packetBytes)"
vector 193 FloodingNetwork.host[33].wlan[0].mac.dcf.channelAccess.pendingQueue queueingTime:vector ETV
attr interpolationmode none
attr source queueingTime(packetPopped)
attr title "queueing times, vector"
attr unit s
vector 194 FloodingNetwork.host[33].wlan[0].mac.dcf.channelAccess.inProgressFrames queueLength:vector ETV
attr interpolationmode sample-hold
attr source "count(packetEnqueued) - count(packetDequeued)"
attr title "queue length, vector"
vector 195 FloodingNetwork.host[33].wlan[0].mac.dcf datarateSelected:vector ETV
attr interpolationmode none
attr title "datarates selected, vector"
vector 196 FloodingNetwork.host[33].wlan[0].mac packetSentToLower:vector(packetBytes) ETV
attr interpolationmode none
attr title "packets sent to lower layer, vector(packetBytes)"
vector 197 FloodingNetwork.host[33].wlan[0].mac.dcf frameSequenceActive:vector ETV
attr interpolationmode sample-hold
attr source count(frameSequenceStarted)-count(frameSequenceFinished)
attr title "frame sequence active, vector"
vector 198 FloodingNetwork.host[33].wlan[0].radio transmissionState:vector ETV
attr interpolationmode sample-hold
attr source transmissionStateChanged
attr title "Radio transmission state, vector"
vector 199 FloodingNetwork.host[18].app[0] pingTxSeq:vector ETV
attr interpolationmode none
attr title "ping tx seq, vector"
vector 200 FloodingNetwork.host[18].wlan[0].mac packetReceivedFromUpper:vector(packetBytes) ETV
attr interpolationmode none
attr title "packets received from upper layer, vector(packetBytes)"
vector 201 FloodingNetwork.host[18].wlan[0].mac.dcf.channelAccess.pendingQueue packetPushed:vector(packetBytes) ETV
attr interpolationmode none
attr title "packet pushed, vector(packetBytes)"
vector 202 FloodingNetwork.host[18].wlan[0].mac.dcf.channelAccess.pendingQueue queueLength:vector ETV
attr interpolationmode sample-hold
attr source "count(packetPushed) - count(packetPopped) - count(packetRemoved) - count(packetDropped)"
attr title "queue length, vector"
vector 203 FloodingNetwork.host[18].wlan[0].mac.dcf.channelAccess.contention backoffPeriodGenerated:vector ETV
attr interpolationmode none
attr title "backoff periods, vector"
vector 204 FloodingNetwork.host[18].wlan[0].mac.dcf.channelAccess.contention backoffActive:vector ETV
attr interpolationmode sample-hold
attr source count(backoffStarted)-count(backoffStopped)
attr title "backoff active, vector"
vector 205 FloodingNetwork.host[18].wlan[0].mac.dcf.channelAccess.pendingQueue packetPopped:vector(packetBytes) ETV
attr interpolationmode none
attr title "packet popped, vector(packetBytes)"
vector 206 FloodingNetwork.host[18].wlan[0].mac.dcf.channelAccess.pendingQueue queueingTime:vector ETV
attr interpolationmode none
attr source queueingTime(packetPopped)
attr title "queueing times, vector"
attr unit s
vector 207 FloodingNetwork.host[18].wlan[0].mac.dcf.channelAccess.inProgressFrames queueLength:vector ETV
attr interpolationmode sample-hold
attr source "count(packetEnqueued) - count(packetDequeued)"
attr title "queue length, vector"
vector 208 FloodingNetwork.host[18].wlan[0].mac.dcf datarateSelected:vector ETV
attr interpolationmode none
attr title "datarates selected, vector"
vector 209 FloodingNetwork.host[18].wlan[0].mac packetSentToLower:vector(packetBytes) ETV
attr interpolationmode none
attr title "packets sent to lower layer, vector(packetBytes)"
vector 210 FloodingNetwork.host[18].wlan[0].mac.dcf frameSequenceActive:vector ETV
attr interpolationmode sample-hold
attr source count(frameSequenceStarted)-count(frameSequenceFinished)
attr title "frame sequence active, vector"
vector 211 FloodingNetwork.host[18].wlan[0].radio transmissionState:vector ETV
attr interpolationmode sample-hold
attr source transmissionStateChanged
attr title "Radio transmission state, vector"
vector 212 FloodingNetwork.host[35].app[0] pingTxSeq:vector ETV
attr interpolationmode none
attr title "ping tx seq, vector"
vector 213 FloodingNetwork.host[35].wlan[0].mac packetReceivedFromUpper:vector(packetBytes) ETV
attr interpolationmode none
attr title "packets received from upper layer, vector(packetBytes)"
vector 214 FloodingNetwork.host[35].wlan[0].mac.dcf.channelAccess.pendingQueue packetPushed:vector(packetBytes) ETV
attr interpolationmode none
attr title "packet pushed, vector(packetBytes)"
vector 215 FloodingNetwork.host[35].wlan[0].mac.dcf.channelAccess.pendingQueue queueLength:vector ETV
attr interpolationmode sample-hold
attr source "count(packetPushed) - count(packetPopped) - count(packetRemoved) - count(packetDropped)"
attr title "queue length, vector"
vector 216 FloodingNetwork.host[35].wlan[0].mac.dcf.channelAccess.contention backoffPeriodGenerated:vector ETV
attr interpolationmode none
attr title "backoff periods, vector"
vector 217 FloodingNetwork.host[7].wlan[0].mac.dcf packetSentToPeer:vector(packetBytes) ETV
attr interpolationmode none
attr title "packets sent, vector(packetBytes)"
vector 218 FloodingNetwork.host[7].wlan[0].mac.dcf packetSentToPeerMulticast:vector(packetBytes) ETV
attr interpolationmode none
attr source ieee80211Multicast(packetSentToPeer)
attr title "packets sent: multicast, vector(packetBytes)"
vector 219 FloodingNetwork.host[7].wlan[0].mac.dcf packetSentToPeerBroadcast:vector(packetBytes) ETV
attr interpolationmode none
attr source ieee80211Broadcast(packetSentToPeer)
attr title "packets sent: broadcast , vector(packetBytes)"
vector 220 FloodingNetwork.host[7].wlan[0].mac.dcf packetSentToPeerWithoutRetry:vector(packetBytes) ETV
attr interpolationmode none
attr source ieee80211NotRetry(packetSentToPeer)
attr title "packets sent: without retry, vector(packetBytes)"
vector 221 FloodingNetwork.host[7].wlan[0].mac.dcf.channelAccess.inProgressFrames queueingTime:vector ETV
attr interpolationmode none
attr source queueingTime(packetDequeued)
attr title "queueing times, vector"
vector 222 FloodingNetwork.host[1].wlan[0].mac packetReceivedFromLower:vector(packetBytes) ETV
attr interpolationmode none
attr title "packets received from lower layer, vector(packetBytes)"
vector 223 FloodingNetwork.host[1].wlan[0].mac.dcf packetReceivedFromPeer:vector(packetBytes) ETV
attr interpolationmode none
attr title "packets received, vector(packetBytes)"
vector 224 FloodingNetwork.host[1].wlan[0].mac.dcf packetReceivedFromPeerMulticast:vector(packetBytes) ETV
attr interpolationmode none
attr source ieee80211Multicast(packetReceivedFromPeer)
attr title "packets received: multicast, vector(packetBytes)"
vector 225 FloodingNetwork.host[1].wlan[0].mac.dcf packetReceivedFromPeerBroadcast:vector(packetBytes) ETV
attr interpolationmode none
attr source ieee80211Broadcast(packetReceivedFromPeer)
attr title "packets received: broadcast, vector(packetBytes)"
vector 226 FloodingNetwork.host[1].wlan[0].mac.dcf packetReceivedFromPeerWithoutRetry:vector(packetBytes) ETV
attr interpolationmode none
attr source ieee80211NotRetry(packetReceivedFromPeer)
attr title "packets received: without retry, vector(packetBytes)"
vector 227 FloodingNetwork.host[1].wlan[0].mac packetSentToUpper:vector(packetBytes) ETV
attr interpolationmode none
attr title "packets sent to upper layer, vector(packetBytes)"
vector 228 FloodingNetwork.host[1].wlan[0].mac packetReceivedFromUpper:vector(packetBytes) ETV
attr interpolationmode none
attr title "packets received from upper layer, vector(packetBytes)"
vector 229 FloodingNetwork.host[1].wlan[0].mac.dcf.channelAccess.pendingQueue packetPushed:vector(packetBytes) ETV
attr interpolationmode none
attr title "packet pushed, vector(packetBytes)"
vector 230 FloodingNetwork.host[1].wlan[0].mac.dcf.channelAccess.pendingQueue queueLength:vector ETV
attr interpolationmode sample-hold
attr source "count(packetPushed) - count(packetPopped) - count(packetRemoved) - count(packetDropped)"
attr title "queue length, vector"
vector 231 FloodingNetwork.host[1].wlan[0].mac.dcf.channelAccess.contention backoffPeriodGenerated:vector ETV
attr interpolationmode none
attr title "backoff periods, vector"
vector 232 FloodingNetwork.host[1].wlan[0].mac.dcf.channelAccess.contention backoffActive:vector ETV
attr interpolationmode sample-hold
attr source count(backoffStarted)-count(backoffStopped)
attr title "backoff active, vector"
vector 233 FloodingNetwork.host[8].wlan[0].mac packetReceivedFromLower:vector(packetBytes) ETV
attr interpolationmode none
attr title "packets received from lower layer, vector(packetBytes)"
vector 234 FloodingNetwork.host[8].wlan[0].mac.dcf packetReceivedFromPeer:vector(packetBytes) ETV
attr interpolationmode none
attr title "packets received, vector(packetBytes)"
vector 235 FloodingNetwork.host[8].wlan[0].mac.dcf packetReceivedFromPeerMulticast:vector(packetBytes) ETV
attr interpolationmode none
attr source ieee80211Multicast(packetReceivedFromPeer)
attr title "packets received: multicast, vector(packetBytes)"
vector 236 FloodingNetwork.host[8].wlan[0].mac.dcf packetReceivedFromPeerBroadcast:vector(packetBytes) ETV
attr interpolationmode none
attr source ieee80211Broadcast(packetReceivedFromPeer)
attr title "packets received: broadcast, vector(packetBytes)"
vector 237 FloodingNetwork.host[8].wlan[0].mac.dcf packetReceivedFromPeerWithoutRetry:vector(packetBytes) ETV
attr interpolationmode none
attr source ieee80211NotRetry(packetReceivedFromPeer)
attr title "packets received: without retry, vector(packetBytes)"
vector 238 FloodingNetwork.host[8].wlan[0].mac packetSentToUpper:vector(packetBytes) ETV
attr interpolationmode none
attr title "packets sent to upper layer, vector(packetBytes)"
vector 239 FloodingNetwork.host[8].wlan[0].mac packetReceivedFromUpper:vector(packetBytes) ETV
attr interpolationmode none
attr title "packets received from upper layer, vector(packetBytes)"
vector 240 FloodingNetwork.host[8].wlan[0].mac.dcf.channelAccess.pendingQueue packetPushed:vector(packetBytes) ETV
attr interpolationmode none
attr title "packet pushed, vector(packetBytes)"
vector 241 FloodingNetwork.host[8].wlan[0].mac.dcf.channelAccess.pendingQueue queueLength:vector ETV
attr interpolationmode sample-hold
attr source "count(packetPushed) - count(packetPopped) - count(packetRemoved) - count(packetDropped)"
attr title "queue length, vector"
vector 242 FloodingNetwork.host[8].wlan[0].mac.dcf.channelAccess.contention backoffPeriodGenerated:vector ETV
attr interpolationmode none
attr title "backoff periods, vector"
vector 243 FloodingNetwork.host[8].wlan[0].mac.dcf.channelAccess.contention backoffActive:vector ETV
attr interpolationmode sample-hold
attr source count(backoffStarted)-count(backoffStopped)
attr title "backoff active, vector"
vector 244 FloodingNetwork.host[26].wlan[0].mac packetReceivedFromLower:vector(packetBytes) ETV
attr interpolationmode none
attr title "packets received from lower layer, vector(packetBytes)"
vector 245 FloodingNetwork.host[26].wlan[0].mac.dcf packetReceivedFromPeer:vector(packetBytes) ETV
attr interpolationmode none
attr title "packets received, vector(packetBytes)"
vector 246 FloodingNetwork.host[26].wlan[0].mac.dcf packetReceivedFromPeerMulticast:vector(packetBytes) ETV
attr interpolationmode none
attr source ieee80211Multicast(packetReceivedFromPeer)
attr title "packets received: multicast, vector(packetBytes)"
vector 247 FloodingNetwork.host[26].wlan[0].mac.dcf packetReceivedFromPeerBroadcast:vector(packetBytes) ETV
attr interpolationmode none
attr source ieee80211Broadcast(packetReceivedFromPeer)
attr title "packets received: broadcast, vector(packetBytes)"
vector 248 FloodingNetwork.host[26].wlan[0].mac.dcf packetReceivedFromPeerWithoutRetry:vector(packetBytes) ETV
attr interpolationmode none
attr source ieee80211NotRetry(packetReceivedFromPeer)
attr title "packets received: without retry, vector(packetBytes)"
vector 249 FloodingNetwork.host[26].wlan[0].mac packetSentToUpper:vector(packetBytes) ETV
attr interpolationmode none
attr title "packets sent to upper layer, vector(packetBytes)"
vector 250 FloodingNetwork.host[26].wlan[0].mac packetReceivedFromUpper:vector(packetBytes) ETV
attr interpolationmode none
attr title "packets received from upper layer, vector(packetBytes)"
vector 251 FloodingNetwork.host[26].wlan[0].mac.dcf.channelAccess.pendingQueue packetPushed:vector(packetBytes) ETV
attr interpolationmode none
attr title "packet pushed, vector(packetBytes)"
vector 252 FloodingNetwork.host[26].wlan[0].mac.dcf.channelAccess.pendingQueue queueLength:vector ETV
attr interpolationmode sample-hold
attr source "count(packetPushed) - count(packetPopped) - count(packetRemoved) - count(packetDropped)"
attr title "queue length, vector"
vector 253 FloodingNetwork.host[26].wlan[0].mac.dcf.channelAccess.contention backoffPeriodGenerated:vector ETV
attr interpolationmode none
attr title "backoff periods, vector"
vector 254 FloodingNetwork.host[26].wlan[0].mac.dcf.channelAccess.contention backoffActive:vector ETV
attr interpolationmode sample-hold
attr source count(backoffStarted)-count(backoffStopped)
attr title "backoff active, vector"
vector 255 FloodingNetwork.host[26].wlan[0].mac.dcf.channelAccess.pendingQueue packetPopped:vector(packetBytes) ETV
attr interpolationmode none
attr title "packet popped, vector(packetBytes)"
vector 256 FloodingNetwork.host[26].wlan[0].mac.dcf.channelAccess.pendingQueue queueingTime:vector ETV
attr interpolationmode none
attr source queueingTime(packetPopped)
attr title "queueing times, vector"
attr unit s
vector 257 FloodingNetwork.host[26].wlan[0].mac.dcf.channelAccess.inProgressFrames queueLength:vector ETV
attr interpolationmode sample-hold
attr source "count(packetEnqueued) - count(packetDequeued)"
attr title "queue length, vector"
vector 258 FloodingNetwork.host[26].wlan[0].mac.dcf datarateSelected:vector ETV
attr interpolationmode none
attr title "datarates selected, vector"
vector 259 FloodingNetwork.host[26].wlan[0].mac packetSentToLower:vector(packetBytes) ETV
attr interpolationmode none
attr title "packets sent to lower layer, vector(packetBytes)"
vector 260 FloodingNetwork.host[26].wlan[0].mac.dcf frameSequenceActive:vector ETV
attr interpolationmode sample-hold
attr source count(frameSequenceStarted)-count(frameSequenceFinished)
attr title "frame sequence active, vector"
vector 261 FloodingNetwork.host[26].wlan[0].radio transmissionState:vector ETV
attr interpolationmode sample-hold
attr source transmissionStateChanged
attr title "Radio transmission state, vector"
vector 262 FloodingNetwork.host[30].app[0] pingTxSeq:vector ETV
attr interpolationmode none
attr title "ping tx seq, vector"
vector 263 FloodingNetwork.host[30].wlan[0].mac packetReceivedFromUpper:vector(packetBytes) ETV
attr interpolationmode none
attr title "packets received from upper layer, vector(packetBytes)"
vector 264 FloodingNetwork.host[30].wlan[0].mac.dcf.channelAccess.pendingQueue packetPushed:vector(packetBytes) ETV
attr interpolationmode none
attr title "packet pushed, vector(packetBytes)"
vector 265 FloodingNetwork.host[30].wlan[0].mac.dcf.channelAccess.pendingQueue queueLength:vector ETV
attr interpolationmode sample-hold
attr source "count(packetPushed) - count(packetPopped) - count(packetRemoved) - count(packetDropped)"
attr title "queue length, vector"
vector 266 FloodingNetwork.host[30].wlan[0].mac.dcf.channelAccess.contention backoffPeriodGenerated:vector ETV
attr interpolationmode none
attr title "backoff periods, vector"
vector 267 FloodingNetwork.host[30].wlan[0].mac.dcf.channelAccess.contention backoffActive:vector ETV
attr interpolationmode sample-hold
attr source count(backoffStarted)-count(backoffStopped)
attr title "backoff active, vector"
vector 268 FloodingNetwork.host[30].wlan[0].mac.dcf.channelAccess.pendingQueue packetPopped:vector(packetBytes) ETV
attr interpolationmode none
attr title "packet popped, vector(packetBytes)"
vector 269 FloodingNetwork.host[30].wlan[0].mac.dcf.channelAccess.pendingQueue queueingTime:vector ETV
attr interpolationmode none
attr source queueingTime(packetPopped)
attr title "queueing times, vector"
attr unit s
vector 270 FloodingNetwork.host[30].wlan[0].mac.dcf.channelAccess.inProgressFrames queueLength:vector ETV
attr interpolationmode sample-hold
attr source "count(packetEnqueued) - count(packetDequeued)"
attr title "queue length, vector"
vector 271 FloodingNetwork.host[30].wlan[0].mac.dcf datarateSelected:vector ETV
attr interpolationmode none
attr title "datarates selected, vector"
vector 272 FloodingNetwork.host[30].wlan[0].mac packetSentToLower:vector(packetBytes) ETV
attr interpolationmode none
attr title "packets sent to lower layer, vector(packetBytes)"
vector 273 FloodingNetwork.host[30].wlan[0].mac.dcf frameSequenceActive:vector ETV
attr interpolationmode sample-hold
attr source count(frameSequenceStarted)-count(frameSequenceFinished)
attr title "frame sequence active, vector"
vector 274 FloodingNetwork.host[30].wlan[0].radio transmissionState:vector ETV
attr interpolationmode sample-hold
attr source transmissionStateChanged
attr title "Radio transmission state, vector"
vector 275 FloodingNetwork.host[28].wlan[0].mac.dcf packetSentToPeer:vector(packetBytes) ETV
attr interpolationmode none
attr title "packets sent, vector(packetBytes)"
vector 276 FloodingNetwork.host[28].wlan[0].mac.dcf packetSentToPeerMulticast:vector(packetBytes) ETV
attr interpolationmode none
attr source ieee80211Multicast(packetSentToPeer)
attr title "packets sent: multicast, vector(packetBytes)"
vector 277 FloodingNetwork.host[28].wlan[0].mac.dcf packetSentToPeerBroadcast:vector(packetBytes) ETV
attr interpolationmode none
attr source ieee80211Broadcast(packetSentToPeer)
attr title "packets sent: broadcast , vector(packetBytes)"
vector 278 FloodingNetwork.host[28].wlan[0].mac.dcf packetSentToPeerWithoutRetry:vector(packetBytes) ETV
attr interpolationmode none
attr source ieee80211NotRetry(packetSentToPeer)
attr title "packets sent: without retry, vector(packetBytes)"
vector 279 FloodingNetwork.host[28].wlan[0].mac.dcf.channelAccess.inProgressFrames queueingTime:vector ETV
attr interpolationmode none
attr source queueingTime(packetDequeued)
attr title "queueing times, vector"
vector 280 FloodingNetwork.host[1].wlan[0].mac.dcf.channelAccess.pendingQueue packetPopped:vector(packetBytes) ETV
attr interpolationmode none
attr title "packet popped, vector(packetBytes)"
vector 281 FloodingNetwork.host[1].wlan[0].mac.dcf.channelAccess.pendingQueue queueingTime:vector ETV
attr interpolationmode none
attr source queueingTime(packetPopped)
attr title "queueing times, vector"
attr unit s
vector 282 FloodingNetwork.host[1].wlan[0].mac.dcf.channelAccess.inProgressFrames queueLength:vector ETV
attr interpolationmode sample-hold
attr source "count(packetEnqueued) - count(packetDequeued)"
attr title "queue length, vector"
vector 283 FloodingNetwork.host[1].wlan[0].mac.dcf datarateSelected:vector ETV
attr interpolationmode none
attr title "datarates selected, vector"
vector 284 FloodingNetwork.host[1].wlan[0].mac packetSentToLower:vector(packetBytes) ETV
attr interpolationmode none
attr title "packets sent to lower layer, vector(packetBytes)"
vector 285 FloodingNetwork.host[1].wlan[0].mac.dcf frameSequenceActive:vector ETV
attr interpolationmode sample-hold
attr source count(frameSequenceStarted)-count(frameSequenceFinished)
attr title "frame sequence active, vector"
vector 286 FloodingNetwork.host[1].wlan[0].radio transmissionState:vector ETV
attr interpolationmode sample-hold
attr source transmissionStateChanged
attr title "Radio transmission state, vector"
vector 287 FloodingNetwork.host[32].app[0] pingTxSeq:vector ETV
attr interpolationmode none
attr title "ping tx seq, vector"
vector 288 FloodingNetwork.host[32].wlan[0].mac packetReceivedFromUpper:vector(packetBytes) ETV
attr interpolationmode none
attr title "packets received from upper layer, vector(packetBytes)"
vector 289 FloodingNetwork.host[32].wlan[0].mac.dcf.channelAccess.pendingQueue packetPushed:vector(packetBytes) ETV
attr interpolationmode none
attr title "packet pushed, vector(packetBytes)"
vector 290 FloodingNetwork.host[32].wlan[0].mac.dcf.channelAccess.pendingQueue queueLength:vector ETV
attr interpolationmode sample-hold
attr source "count(packetPushed) - count(packetPopped) - count(packetRemoved) - count(packetDropped)"
attr title "queue length, vector"
vector 291 FloodingNetwork.host[32].wlan[0].mac.dcf.channelAccess.contention backoffPeriodGenerated:vector ETV
attr interpolationmode none
attr title "backoff periods, vector"
vector 292 FloodingNetwork.host[32].wlan[0].mac.dcf.channelAccess.contention backoffActive:vector ETV
attr interpolationmode sample-hold
attr source count(backoffStarted)-count(backoffStopped)
attr title "backoff active, vector"
vector 293 FloodingNetwork.host[32].wlan[0].mac.dcf.channelAccess.pendingQueue packetPopped:vector(packetBytes) ETV
attr interpolationmode none
attr title "packet popped, vector(packetBytes)"
vector 294 FloodingNetwork.host[32].wlan[0].mac.dcf.channelAccess.pendingQueue queueingTime:vector ETV
attr interpolationmode none
attr source queueingTime(packetPopped)
attr title "queueing times, vector"
attr unit s
vector 295 FloodingNetwork.host[32].wlan[0].mac.dcf.channelAccess.inProgressFrames queueLength:vector ETV
attr interpolationmode sample-hold
attr source "count(packetEnqueued) - count(packetDequeued)"
attr title "queue length, vector"
vector 296 FloodingNetwork.host[32].wlan[0].mac.dcf datarateSelected:vector ETV
attr interpolationmode none
attr title "datarates selected, vector"
vector 297 FloodingNetwork.host[32].wlan[0].mac packetSentToLower:vector(packetBytes) ETV
attr interpolationmode none
attr title "packets sent to lower layer, vector(packetBytes)"
vector 298 FloodingNetwork.host[32].wlan[0].mac.dcf frameSequenceActive:vector ETV
attr interpolationmode sample-hold
attr source count(frameSequenceStarted)-count(frameSequenceFinished)
attr title "frame sequence active, vector"
vector 299 FloodingNetwork.host[32].wlan[0].radio transmissionState:vector ETV
attr interpolationmode sample-hold
attr source transmissionStateChanged
attr title "Radio transmission state, vector"
vector 300 FloodingNetwork.host[36].app[0] pingTxSeq:vector ETV
attr interpolationmode none
attr title "ping tx seq, vector"
vector 301 FloodingNetwork.host[36].wlan[0].mac packetReceivedFromUpper:vector(packetBytes) ETV
attr interpolationmode none
attr title "packets received from upper layer, vector(packetBytes)"
vector 302 FloodingNetwork.host[36].wlan[0].mac.dcf.channelAccess.pendingQueue packetPushed:vector(packetBytes) ETV
attr interpolationmode none
attr title "packet pushed, vector(packetBytes)"
vector 303 FloodingNetwork.host[36].wlan[0].mac.dcf.channelAccess.pendingQueue queueLength:vector ETV
attr interpolationmode sample-hold
attr source "count(packetPushed) - count(packetPopped) - count(packetRemoved) - count(packetDropped)"
attr title "queue length, vector"
vector 304 FloodingNetwork.host[36].wlan[0].mac.dcf.channelAccess.contention backoffPeriodGenerated:vector ETV
attr interpolationmode none
attr title "backoff periods, vector"
vector 305 FloodingNetwork.host[8].wlan[0].mac.dcf.channelAccess.pendingQueue packetPopped:vector(packetBytes) ETV
attr interpolationmode none
attr title "packet popped, vector(packetBytes)"
vector 306 FloodingNetwork.host[8].wlan[0].mac.dcf.channelAccess.pendingQueue queueingTime:vector ETV
attr interpolationmode none
attr source queueingTime(packetPopped)
attr title "queueing times, vector"
attr unit s
vector 307 FloodingNetwork.host[8].wlan[0].mac.dcf.channelAccess.inProgressFrames queueLength:vector ETV
attr interpolationmode sample-hold
attr source "count(packetEnqueued) - count(packetDequeued)"
attr title "queue length, vector"
vector 308 FloodingNetwork.host[8].wlan[0].mac.dcf datarateSelected:vector ETV
attr interpolationmode none
attr title "datarates selected, vector"
vector 309 FloodingNetwork.host[8].wlan[0].mac packetSentToLower:vector(packetBytes) ETV
attr interpolationmode none
attr title "packets sent to lower layer, vector(packetBytes)"
vector 310 FloodingNetwork.host[8].wlan[0].mac.dcf frameSequenceActive:vector ETV
attr interpolationmode sample-hold
attr source count(frameSequenceStarted)-count(frameSequenceFinished)
attr title "frame sequence active, vector"
vector 311 FloodingNetwork.host[8].wlan[0].radio transmissionState:vector ETV
attr interpolationmode sample-hold
attr source transmissionStateChanged
attr title "Radio transmission state, vector"
vector 312 FloodingNetwork.host[33].wlan[0].mac.dcf packetSentToPeer:vector(packetBytes) ETV
attr interpolationmode none
attr title "packets sent, vector(packetBytes)"
vector 313 FloodingNetwork.host[33].wlan[0].mac.dcf packetSentToPeerMulticast:vector(packetBytes) ETV
attr interpolationmode none
attr source ieee80211Multicast(packetSentToPeer)
attr title "packets sent: multicast, vector(packetBytes)"
vector 314 FloodingNetwork.host[33].wlan[0].mac.dcf packetSentToPeerBroadcast:vector(packetBytes) ETV
attr interpolationmode none
attr source ieee80211Broadcast(packetSentToPeer)
attr title "packets sent: broadcast , vector(packetBytes)"
vector 315 FloodingNetwork.host[33].wlan[0].mac.dcf packetSentToPeerWithoutRetry:vector(packetBytes) ETV
attr interpolationmode none
attr source ieee80211NotRetry(packetSentToPeer)
attr title "packets sent: without retry, vector(packetBytes)"
vector 316 FloodingNetwork.host[33].wlan[0].mac.dcf.channelAccess.inProgressFrames queueingTime:vector ETV
attr interpolationmode none
attr source queueingTime(packetDequeued)
attr title "queueing times, vector"
vector 317 FloodingNetwork.host[23].wlan[0].mac packetReceivedFromLower:vector(packetBytes) ETV
attr interpolationmode none
attr title "packets received from lower layer, vector(packetBytes)"
vector 318 FloodingNetwork.host[23].wlan[0].mac.dcf packetReceivedFromPeer:vector(packetBytes) ETV
attr interpolationmode none
attr title "packets received, vector(packetBytes)"
vector 319 FloodingNetwork.host[23].wlan[0].mac.dcf packetReceivedFromPeerMulticast:vector(packetBytes) ETV
attr interpolationmode none
attr source ieee80211Multicast(packetReceivedFromPeer)
attr title "packets received: multicast, vector(packetBytes)"
vector 320 FloodingNetwork.host[23].wlan[0].mac.dcf packetReceivedFromPeerBroadcast:vector(packetBytes) ETV
attr interpolationmode none
attr source ieee80211Broadcast(packetReceivedFromPeer)
attr title "packets received: broadcast, vector(packetBytes)"
vector 321 FloodingNetwork.host[23].wlan[0].mac.dcf packetReceivedFromPeerWithoutRetry:vector(packetBytes) ETV
attr interpolationmode none
attr source ieee80211NotRetry(packetReceivedFromPeer)
attr title "packets received: without retry, vector(packetBytes)"
vector 322 FloodingNetwork.host[23].wlan[0].mac packetSentToUpper:vector(packetBytes) ETV
attr interpolationmode none
attr title "packets sent to upper layer, vector(packetBytes)"
vector 323 FloodingNetwork.host[23].wlan[0].mac packetReceivedFromUpper:vector(packetBytes) ETV
attr interpolationmode none
attr title "packets received from upper layer, vector(packetBytes)"
vector 324 FloodingNetwork.host[23].wlan[0].mac.dcf.channelAccess.pendingQueue packetPushed:vector(packetBytes) ETV
attr interpolationmode none
attr title "packet pushed, vector(packetBytes)"
vector 325 FloodingNetwork.host[23].wlan[0].mac.dcf.channelAccess.pendingQueue queueLength:vector ETV
attr interpolationmode sample-hold
attr source "count(packetPushed) - count(packetPopped) - count(packetRemoved) - count(packetDropped)"
attr title "queue length, vector"
vector 326 FloodingNetwork.host[23].wlan[0].mac.dcf.channelAccess.contention backoffPeriodGenerated:vector ETV
attr interpolationmode none
attr title "backoff periods, vector"
vector 327 FloodingNetwork.host[35].wlan[0].mac.dcf.channelAccess.contention backoffActive:vector ETV
attr interpolationmode sample-hold
attr source count(backoffStarted)-count(backoffStopped)
attr title "backoff active, vector"
vector 328 FloodingNetwork.host[35].wlan[0].mac packetReceivedFromLower:vector(packetBytes) ETV
attr interpolationmode none
attr title "packets received from lower layer, vector(packetBytes)"
vector 329 FloodingNetwork.host[35].wlan[0].mac.dcf packetReceivedFromPeer:vector(packetBytes) ETV
attr interpolationmode none
attr title "packets received, vector(packetBytes)"
vector 330 FloodingNetwork.host[35].wlan[0].mac.dcf packetReceivedFromPeerMulticast:vector(packetBytes) ETV
attr interpolationmode none
attr source ieee80211Multicast(packetReceivedFromPeer)
attr title "packets received: multicast, vector(packetBytes)"
vector 331 FloodingNetwork.host[35].wlan[0].mac.dcf packetReceivedFromPeerBroadcast:vector(packetBytes) ETV
attr interpolationmode none
attr source ieee80211Broadcast(packetReceivedFromPeer)
attr title "packets received: broadcast, vector(packetBytes)"
vector 332 FloodingNetwork.host[35].wlan[0].mac.dcf packetReceivedFromPeerWithoutRetry:vector(packetBytes) ETV
attr interpolationmode none
attr source ieee80211NotRetry(packetReceivedFromPeer)
attr title "packets received: without retry, vector(packetBytes)"
vector 333 FloodingNetwork.host[35].wlan[0].mac packetSentToUpper:vector(packetBytes) ETV
attr interpolationmode none
attr title "packets sent to upper layer, vector(packetBytes)"
vector 334 FloodingNetwork.host[34].wlan[0].mac packetReceivedFromLower:vector(packetBytes) ETV
attr interpolationmode none
attr title "packets received from lower layer, vector(packetBytes)"
vector 335 FloodingNetwork.host[34].wlan[0].mac.dcf packetReceivedFromPeer:vector(packetBytes) ETV
attr interpolationmode none
attr title "packets received, vector(packetBytes)"
vector 336 FloodingNetwork.host[34].wlan[0].mac.dcf packetReceivedFromPeerMulticast:vector(packetBytes) ETV
attr interpolationmode none
attr source ieee80211Multicast(packetReceivedFromPeer)
attr title "packets received: multicast, vector(packetBytes)"
vector 337 FloodingNetwork.host[34].wlan[0].mac.dcf packetReceivedFromPeerBroadcast:vector(packetBytes) ETV
attr interpolationmode none
attr source ieee80211Broadcast(packetReceivedFromPeer)
attr title "packets received: broadcast, vector(packetBytes)"
vector 338 FloodingNetwork.host[34].wlan[0].mac.dcf packetReceivedFromPeerWithoutRetry:vector(packetBytes) ETV
attr interpolationmode none
attr source ieee80211NotRetry(packetReceivedFromPeer)
attr title "packets received: without retry, vector(packetBytes)"
vector 339 FloodingNetwork.host[34].wlan[0].mac packetSentToUpper:vector(packetBytes) ETV
attr interpolationmode none
attr title "packets sent to upper layer, vector(packetBytes)"
vector 340 FloodingNetwork.host[34].wlan[0].mac packetReceivedFromUpper:vector(packetBytes) ETV
attr interpolationmode none
attr title "packets received from upper layer, vector(packetBytes)"
vector 341 FloodingNetwork.host[34].wlan[0].mac.dcf.channelAccess.pendingQueue packetPushed:vector(packetBytes) ETV
attr interpolationmode none
attr title "packet pushed, vector(packetBytes)"
vector 342 FloodingNetwork.host[34].wlan[0].mac.dcf.channelAccess.pendingQueue queueLength:vector ETV
attr interpolationmode sample-hold
attr source "count(packetPushed) - count(packetPopped) - count(packetRemoved) - count(packetDropped)"
attr title "queue length, vector"
vector 343 FloodingNetwork.host[34].wlan[0].mac.dcf.channelAccess.contention backoffPeriodGenerated:vector ETV
attr interpolationmode none
attr title "backoff periods, vector"
vector 344 FloodingNetwork.host[34].wlan[0].mac.dcf.channelAccess.contention backoffActive:vector ETV
attr interpolationmode sample-hold
attr source count(backoffStarted)-count(backoffStopped)
attr title "backoff active, vector"
vector 345 FloodingNetwork.host[36].wlan[0].mac.dcf.channelAccess.contention backoffActive:vector ETV
attr interpolationmode sample-hold
attr source count(backoffStarted)-count(backoffStopped)
attr title "backoff active, vector"
vector 346 FloodingNetwork.host[36].wlan[0].mac packetReceivedFromLower:vector(packetBytes) ETV
attr interpolationmode none
attr title "packets received from lower layer, vector(packetBytes)"
vector 347 FloodingNetwork.host[36].wlan[0].mac packetDrop:vector(packetBytes) ETV
attr interpolationmode none
attr source packetDropped
attr title "packet drops, vector(packetBytes)"
vector 348 FloodingNetwork.host[36].wlan[0].mac packetDropIncorrectlyReceived:vector(packetBytes) ETV
attr interpolationmode none
attr source packetDropReasonIsIncorrectlyReceived(packetDropped)
attr title "packet drops: incorrectly received, vector(packetBytes)"
vector 349 FloodingNetwork.host[22].wlan[0].mac packetReceivedFromLower:vector(packetBytes) ETV
attr interpolationmode none
attr title "packets received from lower layer, vector(packetBytes)"
vector 350 FloodingNetwork.host[22].wlan[0].mac packetDrop:vector(packetBytes) ETV
attr interpolationmode none
attr source packetDropped
attr title "packet drops, vector(packetBytes)"
vector 351 FloodingNetwork.host[22].wlan[0].mac packetDropIncorrectlyReceived:vector(packetBytes) ETV
attr interpolationmode none
attr source packetDropReasonIsIncorrectlyReceived(packetDropped)
attr title "packet drops: incorrectly received, vector(packetBytes)"
vector 352 FloodingNetwork.host[18].wlan[0].mac.dcf packetSentToPeer:vector(packetBytes) ETV
attr interpolationmode none
attr title "packets sent, vector(packetBytes)"
vector 353 FloodingNetwork.host[18].wlan[0].mac.dcf packetSentToPeerMulticast:vector(packetBytes) ETV
attr interpolationmode none
attr source ieee80211Multicast(packetSentToPeer)
attr title "packets sent: multicast, vector(packetBytes)"
vector 354 FloodingNetwork.host[18].wlan[0].mac.dcf packetSentToPeerBroadcast:vector(packetBytes) ETV
attr interpolationmode none
attr source ieee80211Broadcast(packetSentToPeer)
attr title "packets sent: broadcast , vector(packetBytes)"
vector 355 FloodingNetwork.host[18].wlan[0].mac.dcf packetSentToPeerWithoutRetry:vector(packetBytes) ETV
attr interpolationmode none
attr source ieee80211NotRetry(packetSentToPeer)
attr title "packets sent: without retry, vector(packetBytes)"
vector 356 FloodingNetwork.host[18].wlan[0].mac.dcf.channelAccess.inProgressFrames queueingTime:vector ETV
attr interpolationmode none
attr source queueingTime(packetDequeued)
attr title "queueing times, vector"
vector 357 FloodingNetwork.host[11].wlan[0].mac packetReceivedFromLower:vector(packetBytes) ETV
attr interpolationmode none
attr title "packets received from lower layer, vector(packetBytes)"
vector 358 FloodingNetwork.host[11].wlan[0].mac.dcf packetReceivedFromPeer:vector(packetBytes) ETV
attr interpolationmode none
attr title "packets received, vector(packetBytes)"
vector 359 FloodingNetwork.host[11].wlan[0].mac.dcf packetReceivedFromPeerMulticast:vector(packetBytes) ETV
attr interpolationmode none
attr source ieee80211Multicast(packetReceivedFromPeer)
attr title "packets received: multicast, vector(packetBytes)"
vector 360 FloodingNetwork.host[11].wlan[0].mac.dcf packetReceivedFromPeerBroadcast:vector(packetBytes) ETV
attr interpolationmode none
attr source ieee80211Broadcast(packetReceivedFromPeer)
attr title "packets received: broadcast, vector(packetBytes)"
vector 361 FloodingNetwork.host[11].wlan[0].mac.dcf packetReceivedFromPeerWithoutRetry:vector(packetBytes) ETV
attr interpolationmode none
attr source ieee80211NotRetry(packetReceivedFromPeer)
attr title "packets received: without retry, vector(packetBytes)"
vector 362 FloodingNetwork.host[11].wlan[0].mac packetSentToUpper:vector(packetBytes) ETV
attr interpolationmode none
attr title "packets sent to upper layer, vector(packetBytes)"
vector 363 FloodingNetwork.host[11].wlan[0].mac packetReceivedFromUpper:vector(packetBytes) ETV
attr interpolationmode none
attr title "packets received from upper layer, vector(packetBytes)"
vector 364 FloodingNetwork.host[11].wlan[0].mac.dcf.channelAccess.pendingQueue packetPushed:vector(packetBytes) ETV
attr interpolationmode none
attr title "packet pushed, vector(packetBytes)"
vector 365 FloodingNetwork.host[11].wlan[0].mac.dcf.channelAccess.pendingQueue queueLength:vector ETV
attr interpolationmode sample-hold
attr source "count(packetPushed) - count(packetPopped) - count(packetRemoved) - count(packetDropped)"
attr title "queue length, vector"
vector 366 FloodingNetwork.host[11].wlan[0].mac.dcf.channelAccess.contention backoffPeriodGenerated:vector ETV
attr interpolationmode none
attr title "backoff periods, vector"
vector 367 FloodingNetwork.host[11].wlan[0].mac.dcf.channelAccess.contention backoffActive:vector ETV
attr interpolationmode sample-hold
attr source count(backoffStarted)-count(backoffStopped)
attr title "backoff active, vector"
vector 368 FloodingNetwork.host[24].wlan[0].mac packetReceivedFromLower:vector(packetBytes) ETV
attr interpolationmode none
attr title "packets received from lower layer, vector(packetBytes)"
vector 369 FloodingNetwork.host[24].wlan[0].mac.dcf packetReceivedFromPeer:vector(packetBytes) ETV
attr interpolationmode none
attr title "packets received, vector(packetBytes)"
vector 370 FloodingNetwork.host[24].wlan[0].mac.dcf packetReceivedFromPeerMulticast:vector(packetBytes) ETV
attr interpolationmode none
attr source ieee80211Multicast(packetReceivedFromPeer)
attr title "packets received: multicast, vector(packetBytes)"
vector 371 FloodingNetwork.host[24].wlan[0].mac.dcf packetReceivedFromPeerBroadcast:vector(packetBytes) ETV
attr interpolationmode none
attr source ieee80211Broadcast(packetReceivedFromPeer)
attr title "packets received: broadcast, vector(packetBytes)"
vector 372 FloodingNetwork.host[24].wlan[0].mac.dcf packetReceivedFromPeerWithoutRetry:vector(packetBytes) ETV
attr interpolationmode none
attr source ieee80211NotRetry(packetReceivedFromPeer)
attr title "packets received: without retry, vector(packetBytes)"
vector 373 FloodingNetwork.host[24].wlan[0].mac packetSentToUpper:vector(packetBytes) ETV
attr interpolationmode none
attr title "packets sent to upper layer, vector(packetBytes)"
vector 374 FloodingNetwork.host[24].wlan[0].mac packetReceivedFromUpper:vector(packetBytes) ETV
attr interpolationmode none
attr title "packets received from upper layer, vector(packetBytes)"
vector 375 FloodingNetwork.host[24].wlan[0].mac.dcf.channelAccess.pendingQueue packetPushed:vector(packetBytes) ETV
attr interpolationmode none
attr title "packet pushed, vector(packetBytes)"
vector 376 FloodingNetwork.host[24].wlan[0].mac.dcf.channelAccess.pendingQueue queueLength:vector ETV
attr interpolationmode sample-hold
attr source "count(packetPushed) - count(packetPopped) - count(packetRemoved) - count(packetDropped)"
attr title "queue length, vector"
vector 377 FloodingNetwork.host[24].wlan[0].mac.dcf.channelAccess.contention backoffPeriodGenerated:vector ETV
attr interpolationmode none
attr title "backoff periods, vector"
[...]
502	1171	0.003172066686	108
503	1171	0.003172066686	0.001056
504	1174	0.003172133301	108
504	2241	0.004778200251	108
505	1174	0.003172133301	108
505	2241	0.004778200251	108
506	1174	0.003172133301	108
506	2241	0.004778200251	108
507	1174	0.003172133301	108
507	2241	0.004778200251	108
508	1174	0.003172133301	108
508	2241	0.004778200251	108
509	1174	0.003172133301	80
509	2241	0.004778200251	80
510	1178	0.003172133863	108
510	2337	0.00505177411	108
511	1178	0.003172133863	108
512	1178	0.003172133863	108
513	1216	0.003221503567	108
514	1216	0.003221503567	108
515	1216	0.003221503567	108
516	1216	0.003221503567	108
517	1216	0.003221503567	0.001056
518	1257	0.003241410041	0
519	1262	0.003332100084	108
519	2228	0.004778100084	108
520	1262	0.003332100084	108
520	2228	0.004778100084	108
521	1262	0.003332100084	108
521	2228	0.004778100084	108
522	1262	0.003332100084	108
522	2228	0.004778100084	108
523	1262	0.003332100084	0.001056
523	2228	0.004778100084	0.001056
524	1265	0.003332166685	108
524	2231	0.004778166616	108
525	1265	0.003332166685	108
525	2231	0.004778166616	108
526	1265	0.003332166685	108
526	2231	0.004778166616	108
527	1304	0.003373961616	0
528	1308	0.003373961616	80
529	1308	0.003373961616	108
530	1308	0.003373961616	1
530	1310	0.003373961616	0
531	1308	0.003373961616	23
532	1308	0.003373961616	1
532	1309	0.003373961616	0
533	1310	0.003373961616	108
534	1310	0.003373961616	0
535	1310	0.003373961616	1
535	2038	0.004429961616	0
536	1310	0.003373961616	1000000
537	1310	0.003373961616	108
538	1310	0.003373961616	1
538	2038	0.004429961616	0
539	1311	0.003373961616	1
539	1312	0.003373961616	2
539	2038	0.004429961616	1
539	2039	0.004429961616	0
540	1352	0.003585574798	108
541	1352	0.003585574798	108
542	1352	0.003585574798	108
543	1352	0.003585574798	108
544	1352	0.003585574798	0.001056
545	1355	0.003585641322	108
546	1355	0.003585641322	108
547	1394	0.003665607783	108
548	1394	0.003665607783	108
549	1394	0.003665607783	108
550	1394	0.003665607783	108
551	1394	0.003665607783	0.001056
552	1396	0.003665674456	1
552	1603	0.003995827265	0
552	2351	0.005051827265	1
552	2352	0.005051827265	0
552	2352	0.005051827265	1
552	2615	0.005455827265	0
553	1403	0.003665674471	108
554	1403	0.003665674471	108
555	1403	0.003665674471	108
556	1403	0.003665674471	108
557	1403	0.003665674471	80
558	1407	0.003665674471	80
558	1541	0.003843817082	80
559	1407	0.003665674471	108
559	1541	0.003843817082	108
560	1407	0.003665674471	1
560	1541	0.003843817082	2
560	1953	0.004375674257	1
560	1953	0.004375674257	0
561	1407	0.003665674471	14
561	2574	0.005431674257	25
562	1410	0.003665707741	108
563	1410	0.003665707741	108
564	1410	0.003665707741	108
565	1446	0.003682415374	0
566	1450	0.003682415374	80
567	1450	0.003682415374	108
568	1450	0.003682415374	1
568	1596	0.00399570768	0
569	1450	0.003682415374	14
570	1450	0.003682415374	1
570	1595	0.00399570768	0
571	1494	0.003734265105	108
571	2435	0.005300265105	108
572	1494	0.003734265105	108
572	2435	0.005300265105	108
573	1494	0.003734265105	108
573	2435	0.005300265105	108
574	1494	0.003734265105	108
574	2435	0.005300265105	108
575	1494	0.003734265105	0.001056
575	2435	0.005300265105	0.002622
576	1497	0.003734348459	108
576	2438	0.005300348438	108
577	1497	0.003734348459	108
578	1497	0.003734348459	108
579	1537	0.003843817082	0
580	1542	0.003864889781	0
581	1546	0.003864889781	80
582	1546	0.003864889781	108
583	1546	0.003864889781	1
583	1548	0.003864889781	0
584	1546	0.003864889781	16
585	1546	0.003864889781	1
585	1547	0.003864889781	0
586	1548	0.003864889781	108
587	1548	0.003864889781	0
588	1548	0.003864889781	1
588	2287	0.004920889781	0
589	1548	0.003864889781	1000000
590	1548	0.003864889781	108
591	1548	0.003864889781	1
591	2287	0.004920889781	0
592	1549	0.003864889781	1
592	1550	0.003864889781	2
592	2287	0.004920889781	1
592	2288	0.004920889781	0
593	1590	0.003927847932	0
594	1594	0.003927847932	80
595	1594	0.003927847932	108
596	1594	0.003927847932	1
596	1996	0.004401446117	0
597	1594	0.003927847932	16
598	1596	0.00399570768	108
599	1596	0.00399570768	0.000313292306
600	1596	0.00399570768	1
600	2334	0.00505170768	0
601	1596	0.00399570768	1000000
602	1596	0.00399570768	108
603	1596	0.00399570768	1
603	2334	0.00505170768	0
604	1597	0.00399570768	1
604	1598	0.00399570768	2
604	2334	0.00505170768	1
604	2335	0.00505170768	0
605	1638	0.004031346053	108
606	1638	0.004031346053	108
607	1638	0.004031346053	108
608	1638	0.004031346053	108
609	1638	0.004031346053	0.001056
610	1641	0.004031412494	108
611	1641	0.004031412494	108
612	1641	0.004031412494	108
613	1641	0.004031412494	108
614	1641	0.004031412494	108
615	1641	0.004031412494	80
616	1645	0.004031412494	80
617	1645	0.004031412494	108
618	1645	0.004031412494	1
618	2744	0.005527566401	0
619	1645	0.004031412494	17
620	1645	0.004031412494	1
620	2002	0.004401566401	0
620	2665	0.005457566401	1
620	2743	0.005527566401	0
621	1647	0.004031429388	108
622	1647	0.004031429388	108
623	1647	0.004031429388	108
624	1647	0.004031429388	108
625	1647	0.004031429388	108
626	1647	0.004031429388	80
627	1651	0.004031429388	80
627	2222	0.004736004227	80
628	1651	0.004031429388	108
628	2222	0.004736004227	108
629	1651	0.004031429388	1
629	2085	0.004461429388	0
629	2222	0.004736004227	1
630	1651	0.004031429388	19
630	2701	0.005517429388	26
631	1651	0.004031429388	1
631	2084	0.004461429388	0
631	2702	0.005517429388	1
632	1652	0.004031446117	1
632	1995	0.004401446117	0
633	1655	0.004031458106	108
633	2706	0.005517534919	108
634	1655	0.004031458106	108
634	2706	0.005517534919	108
635	1655	0.004031458106	108
635	2706	0.005517534919	108
636	1657	0.004031465538	108
636	2661	0.005457512817	108
637	1657	0.004031465538	108
637	2661	0.005457512817	108
638	1657	0.004031465538	108
638	2661	0.005457512817	108
639	1691	0.004045574337	108
640	1691	0.004045574337	108
641	1691	0.004045574337	108
642	1691	0.004045574337	108
643	1691	0.004045574337	0.001056
644	1695	0.004045640794	108
645	1695	0.004045640794	108
646	1695	0.004045640794	108
647	1695	0.004045640794	108
648	1695	0.004045640794	108
649	1695	0.004045640794	80
650	1699	0.004045640794	80
651	1699	0.004045640794	108
652	1699	0.004045640794	1
652	1910	0.004335640794	0
653	1699	0.004045640794	12
654	1699	0.004045640794	1
654	1909	0.004335640794	0
655	1700	0.004045674257	1
655	1952	0.004375674257	0
655	2575	0.005431674257	1
655	2627	0.005455960555	0
656	1737	0.00405819534	108
657	1737	0.00405819534	108
658	1737	0.00405819534	108
659	1737	0.00405819534	108
660	1737	0.00405819534	0.001056
661	1781	0.004145390439	108
662	1781	0.004145390439	108
663	1781	0.004145390439	108
664	1781	0.004145390439	108
665	1781	0.004145390439	0.001056
666	1786	0.004145490226	108
667	1786	0.004145490226	108
668	1786	0.004145490226	108
669	1823	0.004225406409	108
670	1823	0.004225406409	108
671	1823	0.004225406409	108
672	1823	0.004225406409	108
673	1823	0.004225406409	0.001056
674	1826	0.004225489074	108
675	1826	0.004225489074	108
676	1826	0.004225489074	108
677	1828	0.004225489971	108
678	1828	0.004225489971	108
679	1828	0.004225489971	108
680	1910	0.004335640794	108
681	1910	0.004335640794	0.00029
682	1910	0.004335640794	1
682	2530	0.005391640794	0
683	1910	0.004335640794	1000000
684	1910	0.004335640794	108
685	1910	0.004335640794	1
685	2530	0.005391640794	0
686	1911	0.004335640794	1
686	1912	0.004335640794	2
686	2530	0.005391640794	1
686	2531	0.005391640794	0
687	1953	0.004375674257	108
687	1953	0.004375674257	108
688	1953	0.004375674257	0.000709999786
688	1953	0.004375674257	0.000531857175
689	1953	0.004375674257	1
689	1953	0.004375674257	2
689	2574	0.005431674257	1
690	1953	0.004375674257	1000000
691	1953	0.004375674257	108
692	1953	0.004375674257	1
692	2574	0.005431674257	0
693	1954	0.004375674257	1
693	1955	0.004375674257	2
693	2574	0.005431674257	1
693	2575	0.005431674257	0
694	1996	0.004401446117	108
695	1996	0.004401446117	0.000473598185
696	1996	0.004401446117	1
696	2658	0.005457446117	0
697	1996	0.004401446117	1000000
698	1996	0.004401446117	108
699	1996	0.004401446117	1
699	2658	0.005457446117	0
700	1997	0.004401446117	1
700	1998	0.004401446117	2
700	2658	0.005457446117	1
700	2659	0.005457446117	0
701	2038	0.004429961616	108
702	2038	0.004429961616	108
703	2038	0.004429961616	108
704	2038	0.004429961616	108
705	2038	0.004429961616	0.001056
706	2041	0.004430027806	108
707	2041	0.004430027806	108
708	2041	0.004430027806	108
709	2041	0.004430027806	108
710	2041	0.004430027806	108
711	2041	0.004430027806	80
712	2045	0.004430027806	80
713	2045	0.004430027806	108
714	2045	0.004430027806	1
714	2176	0.004580027806	0
715	2045	0.004430027806	5
716	2045	0.004430027806	1
716	2175	0.004580027806	0
717	2085	0.004461429388	108
718	2085	0.004461429388	0.00043
719	2085	0.004461429388	1
719	2701	0.005517429388	0
720	2085	0.004461429388	1000000
721	2085	0.004461429388	108
722	2085	0.004461429388	1
722	2701	0.005517429388	0
723	2086	0.004461429388	1
723	2087	0.004461429388	2
723	2701	0.005517429388	1
723	2702	0.005517429388	0
724	2127	0.004499499896	0
725	2176	0.004580027806	108
726	2176	0.004580027806	0.00015
727	2176	0.004580027806	1
728	2176	0.004580027806	1000000
729	2176	0.004580027806	108
730	2176	0.004580027806	1
731	2177	0.004580027806	1
731	2178	0.004580027806	2
732	2218	0.004736004227	0
733	2223	0.0047360804	0
734	2233	0.004778183215	108
735	2233	0.004778183215	108
736	2233	0.004778183215	108
737	2233	0.004778183215	108
738	2233	0.004778183215	108
739	2233	0.004778183215	80
740	2237	0.004778183215	80
741	2237	0.004778183215	108
742	2237	0.004778183215	1
742	2393	0.005268183215	0
743	2237	0.004778183215	22
744	2237	0.004778183215	1
744	2392	0.005268183215	0
745	2239	0.004778199799	108
746	2239	0.004778199799	108
747	2239	0.004778199799	108
748	2249	0.00477822064	108
749	2249	0.00477822064	108
750	2282	0.004799771714	0
751	2287	0.004920889781	108
752	2287	0.004920889781	108
753	2287	0.004920889781	108
754	2287	0.004920889781	108
755	2287	0.004920889781	0.001056
756	2290	0.004920972521	108
757	2290	0.004920972521	108
758	2290	0.004920972521	108
759	2292	0.004920973156	108
760	2292	0.004920973156	108
761	2292	0.004920973156	108
762	2292	0.004920973156	108
763	2292	0.004920973156	80
764	2334	0.00505170768	108
765	2334	0.00505170768	108
766	2334	0.00505170768	108
767	2334	0.00505170768	108
768	2334	0.00505170768	0.001056
769	2337	0.00505177411	108
770	2337	0.00505177411	108
771	2337	0.00505177411	108
772	2337	0.00505177411	108
773	2337	0.00505177411	80
774	2340	0.00505177411	1
775	2341	0.00505177411	64
776	2343	0.005051774461	108
777	2343	0.005051774461	108
778	2343	0.005051774461	108
779	2343	0.005051774461	108
780	2343	0.005051774461	80
781	2347	0.005051774461	80
781	2391	0.005204774805	80
782	2347	0.005051774461	108
782	2391	0.005204774805	108
783	2347	0.005051774461	1
783	2391	0.005204774805	2
784	2347	0.005051774461	29
785	2347	0.005051774461	1
785	2622	0.005455928184	0
786	2350	0.005051807823	108
787	2350	0.005051807823	108
788	2350	0.005051807823	108
789	2352	0.005051827265	108
790	2352	0.005051827265	108
791	2387	0.005204774805	0
792	2393	0.005268183215	108
793	2393	0.005268183215	0.00049
794	2393	0.005268183215	1
795	2393	0.005268183215	1000000
796	2393	0.005268183215	108
797	2393	0.005268183215	1
798	2394	0.005268183215	1
798	2395	0.005268183215	2
799	2438	0.005300348438	108
800	2438	0.005300348438	108
801	2438	0.005300348438	108
802	2438	0.005300348438	108
803	2438	0.005300348438	80
804	2525	0.005373732282	0
805	2530	0.005391640794	108
806	2530	0.005391640794	108
807	2530	0.005391640794	108
808	2530	0.005391640794	108
809	2530	0.005391640794	0.001056
810	2574	0.005431674257	108
811	2574	0.005431674257	108
812	2574	0.005431674257	108
813	2574	0.005431674257	108
814	2574	0.005431674257	0.001056
815	2616	0.005455827265	108
815	2616	0.005455827265	108
816	2616	0.005455827265	0.003047578717
816	2616	0.005455827265	0.001790152809
817	2616	0.005455827265	1
817	2616	0.005455827265	2
818	2616	0.005455827265	1000000
819	2616	0.005455827265	108
820	2616	0.005455827265	1
821	2617	0.005455827265	1
821	2618	0.005455827265	2
822	2658	0.005457446117	108
823	2658	0.005457446117	108
824	2658	0.005457446117	108
825	2658	0.005457446117	108
826	2658	0.005457446117	0.001056
827	2664	0.005457546179	108
828	2664	0.005457546179	108
829	2664	0.005457546179	108
830	2701	0.005517429388	108
831	2701	0.005517429388	108
832	2701	0.005517429388	108
833	2701	0.005517429388	108
834	2701	0.005517429388	0.001056
835	2744	0.005527566401	108
836	2744	0.005527566401	0.001496153907
837	2744	0.005527566401	1
838	2744	0.005527566401	1000000
839	2744	0.005527566401	108
840	2744	0.005527566401	1
841	2745	0.005527566401	1
841	2746	0.005527566401	2
842	2787	0.005610370604	108
842	2787	0.005610370604	108
843	2787	0.005610370604	0.003387156749
843	2787	0.005610370604	0.000689397448
844	2787	0.005610370604	1
844	2787	0.005610370604	2
845	2787	0.005610370604	1000000
846	2787	0.005610370604	108
847	2787	0.005610370604	1
848	2788	0.005610370604	1
848	2789	0.005610370604	2
vector 849 FloodingNetwork.host[0].app[1] throughput:vector ETV
attr source throughput(packetReceived)
attr title "throughput, vector"
attr unit bps
vector 850 FloodingNetwork.host[1].app[1] throughput:vector ETV
attr source throughput(packetReceived)
attr title "throughput, vector"
attr unit bps
vector 851 FloodingNetwork.host[2].app[1] throughput:vector ETV
attr source throughput(packetReceived)
attr title "throughput, vector"
attr unit bps
vector 852 FloodingNetwork.host[3].app[1] throughput:vector ETV
attr source throughput(packetReceived)
attr title "throughput, vector"
attr unit bps
vector 853 FloodingNetwork.host[4].app[1] throughput:vector ETV
attr source throughput(packetReceived)
attr title "throughput, vector"
attr unit bps
vector 854 FloodingNetwork.host[5].app[1] throughput:vector ETV
attr source throughput(packetReceived)
attr title "throughput, vector"
attr unit bps
vector 855 FloodingNetwork.host[6].app[1] throughput:vector ETV
attr source throughput(packetReceived)
attr title "throughput, vector"
attr unit bps
vector 856 FloodingNetwork.host[7].app[1] throughput:vector ETV
attr source throughput(packetReceived)
attr title "throughput, vector"
attr unit bps
vector 857 FloodingNetwork.host[8].app[1] throughput:vector ETV
attr source throughput(packetReceived)
attr title "throughput, vector"
attr unit bps
vector 858 FloodingNetwork.host[9].app[1] throughput:vector ETV
attr source throughput(packetReceived)
attr title "throughput, vector"
attr unit bps
vector 859 FloodingNetwork.host[10].app[1] throughput:vector ETV
attr source throughput(packetReceived)
attr title "throughput, vector"
attr unit bps
vector 860 FloodingNetwork.host[11].app[1] throughput:vector ETV
attr source throughput(packetReceived)
attr title "throughput, vector"
attr unit bps
vector 861 FloodingNetwork.host[12].app[1] throughput:vector ETV
attr source throughput(packetReceived)
attr title "throughput, vector"
attr unit bps
vector 862 FloodingNetwork.host[13].app[1] throughput:vector ETV
attr source throughput(packetReceived)
attr title "throughput, vector"
attr unit bps
vector 863 FloodingNetwork.host[14].app[1] throughput:vector ETV
attr source throughput(packetReceived)
attr title "throughput, vector"
attr unit bps
vector 864 FloodingNetwork.host[15].app[1] throughput:vector ETV
attr source throughput(packetReceived)
attr title "throughput, vector"
attr unit bps
vector 865 FloodingNetwork.host[16].app[1] throughput:vector ETV
attr source throughput(packetReceived)
attr title "throughput, vector"
attr unit bps
vector 866 FloodingNetwork.host[17].app[1] throughput:vector ETV
attr source throughput(packetReceived)
attr title "throughput, vector"
attr unit bps
vector 867 FloodingNetwork.host[18].app[1] throughput:vector ETV
attr source throughput(packetReceived)
attr title "throughput, vector"
attr unit bps
vector 868 FloodingNetwork.host[19].app[1] throughput:vector ETV
attr source throughput(packetReceived)
attr title "throughput, vector"
attr unit bps
vector 869 FloodingNetwork.host[20].app[1] throughput:vector ETV
attr source throughput(packetReceived)
attr title "throughput, vector"
attr unit bps
vector 870 FloodingNetwork.host[21].app[1] throughput:vector ETV
attr source throughput(packetReceived)
attr title "throughput, vector"
attr unit bps
vector 871 FloodingNetwork.host[22].app[1] throughput:vector ETV
attr source throughput(packetReceived)
attr title "throughput, vector"
attr unit bps
vector 872 FloodingNetwork.host[23].app[1] throughput:vector ETV
attr source throughput(packetReceived)
attr title "throughput, vector"
attr unit bps
vector 873 FloodingNetwork.host[24].app[1] throughput:vector ETV
attr source throughput(packetReceived)
attr title "throughput, vector"
attr unit bps
vector 874 FloodingNetwork.host[25].app[1] throughput:vector ETV
attr source throughput(packetReceived)
attr title "throughput, vector"
attr unit bps
vector 875 FloodingNetwork.host[26].app[1] throughput:vector ETV
attr source throughput(packetReceived)
attr title "throughput, vector"
attr unit bps
vector 876 FloodingNetwork.host[27].app[1] throughput:vector ETV
attr source throughput(packetReceived)
attr title "throughput, vector"
attr unit bps
vector 877 FloodingNetwork.host[28].app[1] throughput:vector ETV
attr source throughput(packetReceived)
attr title "throughput, vector"
attr unit bps
vector 878 FloodingNetwork.host[29].app[1] throughput:vector ETV
attr source throughput(packetReceived)
attr title "throughput, vector"
attr unit bps
vector 879 FloodingNetwork.host[30].app[1] throughput:vector ETV
attr source throughput(packetReceived)
attr title "throughput, vector"
attr unit bps
vector 880 FloodingNetwork.host[31].app[1] throughput:vector ETV
attr source throughput(packetReceived)
attr title "throughput, vector"
attr unit bps
vector 881 FloodingNetwork.host[32].app[1] throughput:vector ETV
attr source throughput(packetReceived)
attr title "throughput, vector"
attr unit bps
vector 882 FloodingNetwork.host[33].app[1] throughput:vector ETV
attr source throughput(packetReceived)
attr title "throughput, vector"
attr unit bps
vector 883 FloodingNetwork.host[34].app[1] throughput:vector ETV
attr source throughput(packetReceived)
attr title "throughput, vector"
attr unit bps
vector 884 FloodingNetwork.host[35].app[1] throughput:vector ETV
attr source throughput(packetReceived)
attr title "throughput, vector"
attr unit bps
vector 885 FloodingNetwork.host[36].app[1] throughput:vector ETV
attr source throughput(packetReceived)
attr title "throughput, vector"
attr unit bps
vector 886 FloodingNetwork.host[37].app[1] throughput:vector ETV
attr source throughput(packetReceived)
attr title "throughput, vector"
attr unit bps
vector 887 FloodingNetwork.host[38].app[1] throughput:vector ETV
attr source throughput(packetReceived)
attr title "throughput, vector"
attr unit bps
vector 888 FloodingNetwork.host[39].app[1] throughput:vector ETV
attr source throughput(packetReceived)
attr title "throughput, vector"
attr unit bps
849	2816	0.005610766237	0
850	2816	0.005610766237	0
851	2816	0.005610766237	0
852	2816	0.005610766237	0
853	2816	0.005610766237	0
854	2816	0.005610766237	0
855	2816	0.005610766237	0
856	2816	0.005610766237	0
857	2816	0.005610766237	0
858	2816	0.005610766237	91253.133417613
859	2816	0.005610766237	0
860	2816	0.005610766237	0
861	2816	0.005610766237	0
862	2816	0.005610766237	0
863	2816	0.005610766237	0
864	2816	0.005610766237	0
865	2816	0.005610766237	0
866	2816	0.005610766237	0
867	2816	0.005610766237	0
868	2816	0.005610766237	0
869	2816	0.005610766237	0
870	2816	0.005610766237	0
871	2816	0.005610766237	0
872	2816	0.005610766237	0
873	2816	0.005610766237	0
874	2816	0.005610766237	0
875	2816	0.005610766237	0
876	2816	0.005610766237	0
877	2816	0.005610766237	0
878	2816	0.005610766237	0
879	2816	0.005610766237	0
880	2816	0.005610766237	0
881	2816	0.005610766237	0
882	2816	0.005610766237	0
883	2816	0.005610766237	0
884	2816	0.005610766237	0
885	2816	0.005610766237	0
886	2816	0.005610766237	0
887	2816	0.005610766237	0
888	2816	0.005610766237	0

