version 2
run Mobility40Nodes2-0-20200528-22:00:17-15970
attr configname Mobility40Nodes2
attr datetime 20200528-22:00:17
attr experiment Mobility40Nodes2
attr inifile omnetpp.ini
attr iterationvars ""
attr iterationvarsf ""
attr measurement ""
attr network FloodingNetwork
attr processid 15970
attr repetition 0
attr replication #0
attr resultdir results
attr runnumber 0
attr seedset 0
param **.nodeCount 40
param **.host[30].app[0].srcAddr "\"host[30]\""
param **.host[31].app[0].srcAddr "\"host[31]\""
param **.host[32].app[0].srcAddr "\"host[32]\""
param **.host[33].app[0].srcAddr "\"host[33]\""
param **.host[34].app[0].srcAddr "\"host[34]\""
param **.host[35].app[0].srcAddr "\"host[35]\""
param **.host[36].app[0].srcAddr "\"host[36]\""
param **.host[37].app[0].srcAddr "\"host[37]\""
param **.host[38].app[0].srcAddr "\"host[38]\""
param **.host[39].app[0].srcAddr "\"host[39]\""
param **.host[0..8].app[0].sendInterval 0.01s
param **.host[10..39].app[0].sendInterval 0.01s
param **.host[0..8].app[0].destAddr "\"host[9]\""
param **.host[10..39].app[0].destAddr "\"host[9]\""
param *.host[*].mobility.typename "\"LinearMobility\""
param **.mobility.speed 40mps
param **.host[10].mobility.initialX 290m
param **.host[11].mobility.initialX 290m
param **.host[12].mobility.initialX 170m
param **.host[13].mobility.initialX 170m
param **.host[14].mobility.initialX 170m
param **.host[15].mobility.initialX 200m
param **.host[16].mobility.initialX 230m
param **.host[17].mobility.initialX 260m
param **.host[18].mobility.initialX 290m
param **.host[19].mobility.initialX 170m
param **.host[20].mobility.initialX 170m
param **.host[21].mobility.initialX 200m
param **.host[22].mobility.initialX 230m
param **.host[23].mobility.initialX 260m
param **.host[24].mobility.initialX 290m
param **.host[25].mobility.initialX 275m
param **.host[26].mobility.initialX 245m
param **.host[27].mobility.initialX 230m
param **.host[28].mobility.initialX 215m
param **.host[29].mobility.initialX 185m
param **.host[30].mobility.initialX 170m
param **.host[31].mobility.initialX 200m
param **.host[32].mobility.initialX 230m
param **.host[33].mobility.initialX 260m
param **.host[34].mobility.initialX 290m
param **.host[35].mobility.initialX 275m
param **.host[36].mobility.initialX 245m
param **.host[37].mobility.initialX 230m
param **.host[38].mobility.initialX 215m
param **.host[39].mobility.initialX 185m
param **.host[10].mobility.initialY 180m
param **.host[11].mobility.initialY 220m
param **.host[12].mobility.initialY 180m
param **.host[13].mobility.initialY 200m
param **.host[14].mobility.initialY 220m
param **.host[15].mobility.initialY 240m
param **.host[16].mobility.initialY 240m
param **.host[17].mobility.initialY 240m
param **.host[18].mobility.initialY 240m
param **.host[19].mobility.initialY 240m
param **.host[20].mobility.initialY 260m
param **.host[21].mobility.initialY 260m
param **.host[22].mobility.initialY 260m
param **.host[23].mobility.initialY 260m
param **.host[24].mobility.initialY 260m
param **.host[25].mobility.initialY 160m
param **.host[26].mobility.initialY 150m
param **.host[27].mobility.initialY 130m
param **.host[28].mobility.initialY 150m
param **.host[29].mobility.initialY 160m
param **.host[30].mobility.initialY 280m
param **.host[31].mobility.initialY 280m
param **.host[32].mobility.initialY 280m
param **.host[33].mobility.initialY 280m
param **.host[34].mobility.initialY 280m
param **.host[35].mobility.initialY 300m
param **.host[36].mobility.initialY 310m
param **.host[37].mobility.initialY 330m
param **.host[38].mobility.initialY 310m
param **.host[39].mobility.initialY 300m
param **.constraintAreaMaxX 480m
param **.constraintAreaMaxY 420m
param **.constraintAreaMaxZ 0m
param **.constraintAreaMinX 0m
param **.constraintAreaMinY 0m
param **.constraintAreaMinZ 0m
param **.host[*].app[1].localPort 9
param **.destPort 9
param **.numApps 2
param **.nodeCount 10
param **.hasGn true
param **.hasIpv4 false
param **.hasIpv6 false
param **.app[1].typename "\"UdpSink\""
param **.app[0].typename "\"PingApp\""
param **.app[*].networkProtocol "\"flooding\""
param **.host[0].app[0].srcAddr "\"host[0]\""
param **.host[1].app[0].srcAddr "\"host[1]\""
param **.host[2].app[0].srcAddr "\"host[2]\""
param **.host[3].app[0].srcAddr "\"host[3]\""
param **.host[4].app[0].srcAddr "\"host[4]\""
param **.host[5].app[0].srcAddr "\"host[5]\""
param **.host[6].app[0].srcAddr "\"host[6]\""
param **.host[7].app[0].srcAddr "\"host[7]\""
param **.host[8].app[0].srcAddr "\"host[8]\""
param **.host[9].app[0].srcAddr "\"host[9]\""
param **.host[0..8].app[0].sendInterval 1s
param **.host[0..8].app[0].destAddr "\"host[9]\""
param **.networkConfigurator.typename "\"Ipv4NetworkConfigurator\""
param **.generic.typename "\"SimpleNetworkLayer\""
param **.generic.np.typename "\"Flood\""
param **.generic.np.defaultTtl 5
param **.generic.np.headerLength 8B
param **.radioMedium.pathLoss.typename "\"LogNormalShadowing\""
param **.radioMedium.pathLoss.alpha 4.03
param **.radioMedium.pathLoss.sigma 4.98
param **.host[*].mobility.typename "\"StationaryMobility\""
param **.host[*].mobility.initFromDisplayString false
param **.host[*].mobility.initialZ 0m
param **.host[0].mobility.initialX 200m
param **.host[1].mobility.initialX 230m
param **.host[2].mobility.initialX 260m
param **.host[3].mobility.initialX 200m
param **.host[9].mobility.initialX 230m
param **.host[5].mobility.initialX 260m
param **.host[6].mobility.initialX 200m
param **.host[7].mobility.initialX 230m
param **.host[8].mobility.initialX 260m
param **.host[4].mobility.initialX 290m
param **.host[0].mobility.initialY 200m
param **.host[1].mobility.initialY 200m
param **.host[2].mobility.initialY 200m
param **.host[3].mobility.initialY 220m
param **.host[9].mobility.initialY 220m
param **.host[5].mobility.initialY 220m
param **.host[6].mobility.initialY 180m
param **.host[7].mobility.initialY 180m
param **.host[8].mobility.initialY 180m
param **.host[4].mobility.initialY 200m
param **.constraintAreaMaxX 500m
param **.constraintAreaMaxY 500m
param **.constraintAreaMaxZ 0m
param **.constraintAreaMinX 0m
param **.constraintAreaMinY 0m
param **.constraintAreaMinZ 0m
param **.wlan[*].bitrate 1Mbps
param **.wlan[*].radio.displayCommunicationRange true
param *.visualizer.mediumVisualizer.displaySignals true
param *.visualizer.physicalLinkVisualizer.displayLinks true
param *.visualizer.physicalLinkVisualizer.fadeOutTime 0.5s

scalar FloodingNetwork.radioMedium.propagation "Arrival computation count" 1287
scalar FloodingNetwork.radioMedium "transmission count" 33
scalar FloodingNetwork.radioMedium "signal send count" 1287
scalar FloodingNetwork.radioMedium "reception computation count" 1275
scalar FloodingNetwork.radioMedium "interference computation count" 2337
scalar FloodingNetwork.radioMedium "reception decision computation count" 51
scalar FloodingNetwork.radioMedium "listening decision computation count" 1201
scalar FloodingNetwork.radioMedium "reception cache hit" 91.064545518256
attr unit %
scalar FloodingNetwork.radioMedium "interference cache hit" 66.666666666667
attr unit %
scalar FloodingNetwork.radioMedium "noise cache hit" 0
attr unit %
scalar FloodingNetwork.radioMedium "snir cache hit" 50
attr unit %
scalar FloodingNetwork.radioMedium "reception decision cache hit" 50
attr unit %
scalar FloodingNetwork.radioMedium "reception result cache hit" 0
attr unit %
scalar FloodingNetwork.host[0].lo[0].lo rcvdPkFromHl:count 0
attr interpolationmode none
attr source packetReceivedFromUpper
attr title "packets received from higher layer, count"
scalar FloodingNetwork.host[0].lo[0].lo rcvdPkFromHl:sum(packetBytes) 0
attr interpolationmode none
attr source packetReceivedFromUpper
attr title "packets received from higher layer, sum(packetBytes)"
scalar FloodingNetwork.host[0].lo[0].lo passedUpPk:count 0
attr interpolationmode none
attr source packetSentToUpper
attr title "packets passed to higher layer, count"
scalar FloodingNetwork.host[0].lo[0].lo passedUpPk:sum(packetBytes) 0
attr interpolationmode none
attr source packetSentToUpper
attr title "packets passed to higher layer, sum(packetBytes)"
scalar FloodingNetwork.host[0].wlan[0].mac.dcf.channelAccess.pendingQueue packetPopped:count 1
attr interpolationmode none
attr title "packet popped, count"
scalar FloodingNetwork.host[0].wlan[0].mac.dcf.channelAccess.pendingQueue packetPopped:sum(packetBytes) 108
attr interpolationmode none
attr title "packet popped, sum(packetBytes)"
statistic FloodingNetwork.host[0].wlan[0].mac.dcf.channelAccess.pendingQueue queueingTime:histogram
field count 1
field mean 0.001496153907
field stddev -nan
field min 0.001496153907
field max 0.001496153907
field sum 0.001496153907
field sqrsum 2.2384765134314e-06
attr interpolationmode none
attr source queueingTime(packetPopped)
attr title "queueing times, histogram"
attr unit s
bin	-inf	0
bin	0	1
bin	0.01	0
bin	0.02	0
bin	0.03	0
bin	0.04	0
bin	0.05	0
bin	0.06	0
bin	0.07	0
bin	0.08	0
bin	0.09	0
bin	0.1	0
bin	0.11	0
bin	0.12	0
bin	0.13	0
bin	0.14	0
bin	0.15	0
bin	0.16	0
bin	0.17	0
bin	0.18	0
bin	0.19	0
bin	0.2	0
bin	0.21	0
bin	0.22	0
bin	0.23	0
bin	0.24	0
bin	0.25	0
bin	0.26	0
bin	0.27	0
bin	0.28	0
bin	0.29	0
bin	0.3	0
bin	0.31	0
bin	0.32	0
bin	0.33	0
bin	0.34	0
bin	0.35	0
bin	0.36	0
bin	0.37	0
bin	0.38	0
bin	0.39	0
bin	0.4	0
bin	0.41	0
bin	0.42	0
bin	0.43	0
bin	0.44	0
bin	0.45	0
bin	0.46	0
bin	0.47	0
bin	0.48	0
bin	0.49	0
bin	0.5	0
bin	0.51	0
scalar FloodingNetwork.host[0].wlan[0].mac.dcf.channelAccess.pendingQueue queueLength:max 1
attr interpolationmode sample-hold
attr source "count(packetPushed) - count(packetPopped) - count(packetRemoved) - count(packetDropped)"
attr title "queue length, max"
scalar FloodingNetwork.host[0].wlan[0].mac.dcf.channelAccess.pendingQueue queueLength:timeavg 0.94732032873018
attr interpolationmode sample-hold
attr source "count(packetPushed) - count(packetPopped) - count(packetRemoved) - count(packetDropped)"
attr title "queue length, timeavg"
scalar FloodingNetwork.host[0].wlan[0].mac.dcf.channelAccess.pendingQueue packetPushed:count 1
attr interpolationmode none
attr title "packet pushed, count"
scalar FloodingNetwork.host[0].wlan[0].mac.dcf.channelAccess.pendingQueue packetPushed:sum(packetBytes) 108
attr interpolationmode none
attr title "packet pushed, sum(packetBytes)"
scalar FloodingNetwork.host[0].wlan[0].mac.dcf.channelAccess.pendingQueue packetDropQueueOverflow:count 0
attr interpolationmode none
attr source packetDropReasonIsQueueOverflow(packetDropped)
attr title "packet drops: queue overflow, count"
scalar FloodingNetwork.host[0].wlan[0].mac.dcf.channelAccess.pendingQueue packetDropQueueOverflow:sum(packetBytes) 0
attr interpolationmode none
attr source packetDropReasonIsQueueOverflow(packetDropped)
attr title "packet drops: queue overflow, sum(packetBytes)"
scalar FloodingNetwork.host[0].wlan[0].mac.dcf.channelAccess.pendingQueue packetRemoved:count 0
attr interpolationmode none
attr title "packets removed, count"
scalar FloodingNetwork.host[0].wlan[0].mac.dcf.channelAccess.pendingQueue packetRemoved:sum(packetBytes) 0
attr interpolationmode none
attr title "packets removed, sum(packetBytes)"
statistic FloodingNetwork.host[0].wlan[0].mac.dcf.channelAccess.inProgressFrames queueingTime:histogram
field count 0
field mean -nan
field stddev -nan
field min -nan
field max -nan
field sum 0
field sqrsum 0
attr interpolationmode none
attr source queueingTime(packetDequeued)
attr title "queueing times, histogram"
bin	-inf	0
bin	0	0
bin	1	0
scalar FloodingNetwork.host[0].wlan[0].mac.dcf.channelAccess.inProgressFrames queueLength:max 1
attr interpolationmode sample-hold
attr source "count(packetEnqueued) - count(packetDequeued)"
attr title "queue length, max"
scalar FloodingNetwork.host[0].wlan[0].mac.dcf.channelAccess.inProgressFrames queueLength:timeavg 1
attr interpolationmode sample-hold
attr source "count(packetEnqueued) - count(packetDequeued)"
attr title "queue length, timeavg"
scalar FloodingNetwork.host[0].wlan[0].mac.dcf.channelAccess.contention channelAccessGranted:count 1
attr title "channel access granted, count"
scalar FloodingNetwork.host[0].wlan[0].mac.dcf.channelAccess.contention stateChanged:count 16
attr interpolationmode none
attr title "contention state changed, count"
scalar FloodingNetwork.host[0].wlan[0].mac.dcf.channelAccess channelOwnershipChanged:count 1
attr interpolationmode sample-hold
attr title "channel ownership, count"
scalar FloodingNetwork.host[0].wlan[0].mac.dcf.originatorMacDataService packetAggregated:count 0
attr title "packets aggregated, count"
scalar FloodingNetwork.host[0].wlan[0].mac.dcf.originatorMacDataService packetFragmented:count 0
attr title "packets fragmented, count"
scalar FloodingNetwork.host[0].wlan[0].mac.dcf.recipientMacDataService packetDeaggregated:count 0
attr title "packets deaggregated, count"
scalar FloodingNetwork.host[0].wlan[0].mac.dcf.recipientMacDataService packetDefragmented:count 1
attr title "packets defragmented, count"
scalar FloodingNetwork.host[0].wlan[0].mac.dcf.recipientMacDataService packetDropDuplicateDetected:count 0
attr interpolationmode none
attr source packetDropReasonIsDuplicateDetected(packetDropped)
attr title "packet drops: duplicate detected, count"
scalar FloodingNetwork.host[0].wlan[0].mac.dcf.recipientMacDataService packetDropDuplicateDetected:sum(packetBytes) 0
attr interpolationmode none
attr source packetDropReasonIsDuplicateDetected(packetDropped)
attr title "packet drops: duplicate detected, sum(packetBytes)"
scalar FloodingNetwork.host[0].wlan[0].mac.dcf.recoveryProcedure retryLimitReached:count 0
attr title "retry limit reached, count"
scalar FloodingNetwork.host[0].wlan[0].mac.dcf frameSequenceFinished:count 0
attr title "finished frame sequences, count"
statistic FloodingNetwork.host[0].wlan[0].mac.dcf frameSequenceDuration:histogram
field count 0
field mean -nan
field stddev -nan
field min -nan
field max -nan
field sum 0
field sqrsum 0
attr source frameSequenceDuration(frameSequenceFinished)
attr title "frame sequence durations, histogram"
bin	-inf	0
bin	0	0
bin	1	0
statistic FloodingNetwork.host[0].wlan[0].mac.dcf frameSequenceNumPackets:histogram
field count 0
field mean -nan
field stddev -nan
field min -nan
field max -nan
field sum 0
field sqrsum 0
attr source frameSequenceNumPackets(frameSequenceFinished)
attr title "frame sequences: number of packets, histogram"
bin	-inf	0
bin	0	0
bin	1	0
scalar FloodingNetwork.host[0].wlan[0].mac.dcf packetReceivedFromPeer:count 1
attr interpolationmode none
attr title "packets received, count"
scalar FloodingNetwork.host[0].wlan[0].mac.dcf packetReceivedFromPeer:sum(packetBytes) 108
attr interpolationmode none
attr title "packets received, sum(packetBytes)"
scalar FloodingNetwork.host[0].wlan[0].mac.dcf packetReceivedFromPeerUnicast:count 0
attr interpolationmode none
attr source ieee80211Unicast(packetReceivedFromPeer)
attr title "packets received: unicast, count"
scalar FloodingNetwork.host[0].wlan[0].mac.dcf packetReceivedFromPeerUnicast:sum(packetBytes) 0
attr interpolationmode none
attr source ieee80211Unicast(packetReceivedFromPeer)
attr title "packets received: unicast, sum(packetBytes)"
scalar FloodingNetwork.host[0].wlan[0].mac.dcf packetReceivedFromPeerMulticast:count 1
attr interpolationmode none
attr source ieee80211Multicast(packetReceivedFromPeer)
attr title "packets received: multicast, count"
scalar FloodingNetwork.host[0].wlan[0].mac.dcf packetReceivedFromPeerMulticast:sum(packetBytes) 108
attr interpolationmode none
attr source ieee80211Multicast(packetReceivedFromPeer)
attr title "packets received: multicast, sum(packetBytes)"
scalar FloodingNetwork.host[0].wlan[0].mac.dcf packetReceivedFromPeerBroadcast:count 1
attr interpolationmode none
attr source ieee80211Broadcast(packetReceivedFromPeer)
attr title "packets received: broadcast, count"
scalar FloodingNetwork.host[0].wlan[0].mac.dcf packetReceivedFromPeerBroadcast:sum(packetBytes) 108
attr interpolationmode none
attr source ieee80211Broadcast(packetReceivedFromPeer)
attr title "packets received: broadcast, sum(packetBytes)"
scalar FloodingNetwork.host[0].wlan[0].mac.dcf packetReceivedFromPeerWithRetry:count 0
attr interpolationmode none
attr source ieee80211Retry(packetReceivedFromPeer)
attr title "packets received: with retry, count"
scalar FloodingNetwork.host[0].wlan[0].mac.dcf packetReceivedFromPeerWithRetry:sum(packetBytes) 0
attr interpolationmode none
attr source ieee80211Retry(packetReceivedFromPeer)
attr title "packets received: with retry, sum(packetBytes)"
scalar FloodingNetwork.host[0].wlan[0].mac.dcf packetReceivedFromPeerWithoutRetry:count 1
attr interpolationmode none
attr source ieee80211NotRetry(packetReceivedFromPeer)
attr title "packets received: without retry, count"
scalar FloodingNetwork.host[0].wlan[0].mac.dcf packetReceivedFromPeerWithoutRetry:sum(packetBytes) 108
attr interpolationmode none
attr source ieee80211NotRetry(packetReceivedFromPeer)
attr title "packets received: without retry, sum(packetBytes)"
scalar FloodingNetwork.host[0].wlan[0].mac.dcf packetSentToPeer:count 0
attr interpolationmode none
attr title "packets sent, count"
scalar FloodingNetwork.host[0].wlan[0].mac.dcf packetSentToPeer:sum(packetBytes) 0
attr interpolationmode none
attr title "packets sent, sum(packetBytes)"
scalar FloodingNetwork.host[0].wlan[0].mac.dcf packetSentToPeerUnicast:count 0
attr interpolationmode none
attr source ieee80211Unicast(packetSentToPeer)
attr title "packets sent: unicast, count"
scalar FloodingNetwork.host[0].wlan[0].mac.dcf packetSentToPeerUnicast:sum(packetBytes) 0
attr interpolationmode none
attr source ieee80211Unicast(packetSentToPeer)
attr title "packets sent: unicast, sum(packetBytes)"
scalar FloodingNetwork.host[0].wlan[0].mac.dcf packetSentToPeerMulticast:count 0
attr interpolationmode none
attr source ieee80211Multicast(packetSentToPeer)
attr title "packets sent: multicast, count"
scalar FloodingNetwork.host[0].wlan[0].mac.dcf packetSentToPeerMulticast:sum(packetBytes) 0
attr interpolationmode none
attr source ieee80211Multicast(packetSentToPeer)
attr title "packets sent: multicast, sum(packetBytes)"
scalar FloodingNetwork.host[0].wlan[0].mac.dcf packetSentToPeerBroadcast:count 0
attr interpolationmode none
attr source ieee80211Broadcast(packetSentToPeer)
attr title "packets sent: broadcast , count"
scalar FloodingNetwork.host[0].wlan[0].mac.dcf packetSentToPeerBroadcast:sum(packetBytes) 0
attr interpolationmode none
attr source ieee80211Broadcast(packetSentToPeer)
attr title "packets sent: broadcast , sum(packetBytes)"
scalar FloodingNetwork.host[0].wlan[0].mac.dcf packetSentToPeerWithRetry:count 0
attr interpolationmode none
attr source ieee80211Retry(packetSentToPeer)
attr title "packets sent: with retry, count"
scalar FloodingNetwork.host[0].wlan[0].mac.dcf packetSentToPeerWithRetry:sum(packetBytes) 0
attr interpolationmode none
attr source ieee80211Retry(packetSentToPeer)
attr title "packets sent: with retry, sum(packetBytes)"
scalar FloodingNetwork.host[0].wlan[0].mac.dcf packetSentToPeerWithoutRetry:count 0
attr interpolationmode none
attr source ieee80211NotRetry(packetSentToPeer)
attr title "packets sent: without retry, count"
scalar FloodingNetwork.host[0].wlan[0].mac.dcf packetSentToPeerWithoutRetry:sum(packetBytes) 0
attr interpolationmode none
attr source ieee80211NotRetry(packetSentToPeer)
attr title "packets sent: without retry, sum(packetBytes)"
scalar FloodingNetwork.host[0].wlan[0].mac.dcf packetDrop:count 0
attr interpolationmode none
attr source packetDropped
attr title "packet drops, count"
scalar FloodingNetwork.host[0].wlan[0].mac.dcf packetDrop:sum(packetBytes) 0
attr interpolationmode none
attr source packetDropped
attr title "packet drops, sum(packetBytes)"
scalar FloodingNetwork.host[0].wlan[0].mac.dcf packetDropNotAddressedToUs:count 0
attr interpolationmode none
attr source packetDropReasonIsNotAddressedToUs(packetDropped)
attr title "packet drops: not addressed to us, count"
scalar FloodingNetwork.host[0].wlan[0].mac.dcf packetDropNotAddressedToUs:sum(packetBytes) 0
attr interpolationmode none
attr source packetDropReasonIsNotAddressedToUs(packetDropped)
attr title "packet drops: not addressed to us, sum(packetBytes)"
scalar FloodingNetwork.host[0].wlan[0].mac.dcf packetDropQueueOverflow:count 0
attr interpolationmode none
attr source packetDropReasonIsQueueOverflow(packetDropped)
attr title "packet drops: queue overflow, count"
scalar FloodingNetwork.host[0].wlan[0].mac.dcf packetDropQueueOverflow:sum(packetBytes) 0
attr interpolationmode none
attr source packetDropReasonIsQueueOverflow(packetDropped)
attr title "packet drops: queue overflow, sum(packetBytes)"
scalar FloodingNetwork.host[0].wlan[0].mac.dcf packetDropRetryLimitReached:count 0
attr interpolationmode none
attr source packetDropReasonIsRetryLimitReached(packetDropped)
attr title "packet drops: retry limit reached, count"
scalar FloodingNetwork.host[0].wlan[0].mac.dcf packetDropRetryLimitReached:sum(packetBytes) 0
attr interpolationmode none
attr source packetDropReasonIsRetryLimitReached(packetDropped)
attr title "packet drops: retry limit reached, sum(packetBytes)"
scalar FloodingNetwork.host[0].wlan[0].mac.dcf linkBroken:count 0
attr interpolationmode none
attr title "link breaks, count"
scalar FloodingNetwork.host[0].wlan[0].mac packetReceivedFromLower:count 1
attr interpolationmode none
attr title "packets received from lower layer, count"
scalar FloodingNetwork.host[0].wlan[0].mac packetReceivedFromLower:sum(packetBytes) 108
attr interpolationmode none
attr title "packets received from lower layer, sum(packetBytes)"
scalar FloodingNetwork.host[0].wlan[0].mac packetSentToLower:count 1
attr interpolationmode none
attr title "packets sent to lower layer, count"
scalar FloodingNetwork.host[0].wlan[0].mac packetSentToLower:sum(packetBytes) 108
attr interpolationmode none
attr title "packets sent to lower layer, sum(packetBytes)"
scalar FloodingNetwork.host[0].wlan[0].mac packetReceivedFromUpper:count 1
attr interpolationmode none
attr title "packets received from upper layer, count"
scalar FloodingNetwork.host[0].wlan[0].mac packetReceivedFromUpper:sum(packetBytes) 80
attr interpolationmode none
attr title "packets received from upper layer, sum(packetBytes)"
scalar FloodingNetwork.host[0].wlan[0].mac packetSentToUpper:count 1
attr interpolationmode none
attr title "packets sent to upper layer, count"
scalar FloodingNetwork.host[0].wlan[0].mac packetSentToUpper:sum(packetBytes) 80
attr interpolationmode none
attr title "packets sent to upper layer, sum(packetBytes)"
scalar FloodingNetwork.host[0].wlan[0].mac packetDrop:count 0
attr interpolationmode none
attr source packetDropped
attr title "packet drops, count"
scalar FloodingNetwork.host[0].wlan[0].mac packetDrop:sum(packetBytes) 0
attr interpolationmode none
attr source packetDropped
attr title "packet drops, sum(packetBytes)"
scalar FloodingNetwork.host[0].wlan[0].mac packetDropIncorrectlyReceived:count 0
attr interpolationmode none
attr source packetDropReasonIsIncorrectlyReceived(packetDropped)
attr title "packet drops: incorrectly received, count"
scalar FloodingNetwork.host[0].wlan[0].mac packetDropIncorrectlyReceived:sum(packetBytes) 0
attr interpolationmode none
attr source packetDropReasonIsIncorrectlyReceived(packetDropped)
attr title "packet drops: incorrectly received, sum(packetBytes)"
scalar FloodingNetwork.host[0].wlan[0].mac packetDropNotAddressedToUs:count 0
attr interpolationmode none
attr source packetDropReasonIsNotAddressedToUs(packetDropped)
attr title "packet drops: not addressed to us, count"
scalar FloodingNetwork.host[0].wlan[0].mac packetDropNotAddressedToUs:sum(packetBytes) 0
attr interpolationmode none
attr source packetDropReasonIsNotAddressedToUs(packetDropped)
attr title "packet drops: not addressed to us, sum(packetBytes)"
scalar FloodingNetwork.host[0].wlan[0].mac packetDropQueueOverflow:count 0
attr interpolationmode none
attr source packetDropReasonIsQueueOverflow(packetDropped)
attr title "packet drops: queue overflow, count"
scalar FloodingNetwork.host[0].wlan[0].mac packetDropQueueOverflow:sum(packetBytes) 0
attr interpolationmode none
attr source packetDropReasonIsQueueOverflow(packetDropped)
attr title "packet drops: queue overflow, sum(packetBytes)"
scalar FloodingNetwork.host[0].wlan[0].mac packetDropRetryLimitReached:count 0
attr interpolationmode none
attr source packetDropReasonIsRetryLimitReached(packetDropped)
attr title "packet drops: retry limit reached, count"
scalar FloodingNetwork.host[0].wlan[0].mac packetDropRetryLimitReached:sum(packetBytes) 0
attr interpolationmode none
attr source packetDropReasonIsRetryLimitReached(packetDropped)
attr title "packet drops: retry limit reached, sum(packetBytes)"
scalar FloodingNetwork.host[0].wlan[0].mac packetDropDuplicateDetected:count 0
attr interpolationmode none
attr source packetDropReasonIsDuplicateDetected(packetDropped)
attr title "packet drops: duplicate detected, count"
scalar FloodingNetwork.host[0].wlan[0].mac packetDropDuplicateDetected:sum(packetBytes) 0
attr interpolationmode none
attr source packetDropReasonIsDuplicateDetected(packetDropped)
attr title "packet drops: duplicate detected, sum(packetBytes)"
scalar FloodingNetwork.host[0].wlan[0].mac packetDropOther:count 0
attr interpolationmode none
attr source packetDropReasonIsOther(packetDropped)
attr title "packet drops: other, count"
scalar FloodingNetwork.host[0].wlan[0].mac packetDropOther:sum(packetBytes) 0
attr interpolationmode none
attr source packetDropReasonIsOther(packetDropped)
attr title "packet drops: other, sum(packetBytes)"
scalar FloodingNetwork.host[0].wlan[0].mac linkBroken:count 0
attr interpolationmode none
attr title "link breaks, count"
statistic FloodingNetwork.host[0].wlan[0].radio radioChannel:histogram
field count 1
field mean 0
field stddev -nan
field min 0
field max 0
field sum 0
field sqrsum 0
attr interpolationmode sample-hold
attr source radioChannelChanged
attr title "Radio channel, histogram"
bin	-inf	0
bin	-0.5	0
bin	-0.48	0
bin	-0.46	0
bin	-0.44	0
bin	-0.42	0
bin	-0.4	0
bin	-0.38	0
bin	-0.36	0
bin	-0.34	0
bin	-0.32	0
bin	-0.3	0
bin	-0.28	0
bin	-0.26	0
bin	-0.24	0
bin	-0.22	0
bin	-0.2	0
bin	-0.18	0
bin	-0.16	0
bin	-0.14	0
bin	-0.12	0
bin	-0.1	0
bin	-0.08	0
bin	-0.06	0
bin	-0.04	0
bin	-0.02	0
bin	0	1
bin	0.02	0
bin	0.04	0
bin	0.06	0
bin	0.08	0
bin	0.1	0
bin	0.12	0
bin	0.14	0
bin	0.16	0
bin	0.18	0
bin	0.2	0
bin	0.22	0
bin	0.24	0
bin	0.26	0
bin	0.28	0
bin	0.3	0
bin	0.32	0
bin	0.34	0
bin	0.36	0
bin	0.38	0
bin	0.4	0
bin	0.42	0
bin	0.44	0
bin	0.46	0
bin	0.48	0
bin	0.5	0
scalar FloodingNetwork.host[0].wlan[0].radio radioMode:count 4
attr interpolationmode sample-hold
attr source radioModeChanged
attr title "Radio mode, count"
scalar FloodingNetwork.host[0].wlan[0].radio receptionState:count 6
attr interpolationmode sample-hold
attr source receptionStateChanged
attr title "Radio reception state, count"
scalar FloodingNetwork.host[0].wlan[0].radio transmissionState:count 2
attr interpolationmode sample-hold
attr source transmissionStateChanged
attr title "Radio transmission state, count"
statistic FloodingNetwork.host[0].wlan[0].radio minSnir:histogram
field count 1
field mean 5.9438951489769
field stddev -nan
field min 5.9438951489769
field max 5.9438951489769
field sum 5.9438951489769
field sqrsum 35.329889542031
attr source minimumSnir(packetSentToUpper)
attr title "Min SNIR, histogram"
bin	-inf	0
bin	5.44	0
bin	5.46	0
bin	5.48	0
bin	5.5	0
bin	5.52	0
bin	5.54	0
bin	5.56	0
bin	5.58	0
bin	5.6	0
bin	5.62	0
bin	5.64	0
bin	5.66	0
bin	5.68	0
bin	5.7	0
bin	5.72	0
bin	5.74	0
bin	5.76	0
bin	5.78	0
bin	5.8	0
bin	5.82	0
bin	5.84	0
bin	5.86	0
bin	5.88	0
bin	5.9	0
bin	5.92	0
bin	5.94	1
bin	5.96	0
bin	5.98	0
bin	6	0
bin	6.02	0
bin	6.04	0
bin	6.06	0
bin	6.08	0
bin	6.1	0
bin	6.12	0
bin	6.14	0
bin	6.16	0
bin	6.18	0
bin	6.2	0
bin	6.22	0
bin	6.24	0
bin	6.26	0
bin	6.28	0
bin	6.3	0
bin	6.32	0
bin	6.34	0
bin	6.36	0
bin	6.38	0
bin	6.4	0
bin	6.42	0
bin	6.44	0
bin	6.46	0
statistic FloodingNetwork.host[0].wlan[0].radio packetErrorRate:histogram
field count 1
field mean 0.0031295608283969
field stddev -nan
field min 0.0031295608283969
field max 0.0031295608283969
field sum 0.0031295608283969
field sqrsum 9.7941509786362e-06
attr source packetErrorRate(packetSentToUpper)
attr title "Packet error rate, histogram"
bin	-inf	0
bin	0	1
bin	0.01	0
bin	0.02	0
bin	0.03	0
bin	0.04	0
bin	0.05	0
bin	0.06	0
bin	0.07	0
bin	0.08	0
bin	0.09	0
bin	0.1	0
bin	0.11	0
bin	0.12	0
bin	0.13	0
bin	0.14	0
bin	0.15	0
bin	0.16	0
bin	0.17	0
bin	0.18	0
bin	0.19	0
bin	0.2	0
bin	0.21	0
bin	0.22	0
bin	0.23	0
bin	0.24	0
bin	0.25	0
bin	0.26	0
bin	0.27	0
bin	0.28	0
bin	0.29	0
bin	0.3	0
bin	0.31	0
bin	0.32	0
bin	0.33	0
bin	0.34	0
bin	0.35	0
bin	0.36	0
bin	0.37	0
bin	0.38	0
bin	0.39	0
bin	0.4	0
bin	0.41	0
bin	0.42	0
bin	0.43	0
bin	0.44	0
bin	0.45	0
bin	0.46	0
bin	0.47	0
bin	0.48	0
bin	0.49	0
bin	0.5	0
bin	0.51	0
statistic FloodingNetwork.host[0].wlan[0].radio bitErrorRate:histogram
field count 0
field mean -nan
field stddev -nan
field min -nan
field max -nan
field sum 0
field sqrsum 0
attr source bitErrorRate(packetSentToUpper)
attr title "Bit error rate, histogram"
bin	-inf	0
bin	0	0
bin	1	0
statistic FloodingNetwork.host[0].wlan[0].radio symbolErrorRate:histogram
field count 0
field mean -nan
field stddev -nan
field min -nan
field max -nan
field sum 0
field sqrsum 0
attr source symbolErrorRate(packetSentToUpper)
attr title "Symbol error rate, histogram"
bin	-inf	0
bin	0	0
bin	1	0
scalar FloodingNetwork.host[0].generic.np nbDataPacketsReceived 0
scalar FloodingNetwork.host[0].generic.np nbDataPacketsSent 0
scalar FloodingNetwork.host[0].generic.np nbDataPacketsForwarded 1
scalar FloodingNetwork.host[0].generic.np meanNbHops 0
scalar FloodingNetwork.host[0].udp packetReceived:count 0
attr interpolationmode none
attr source packetReceived
attr title "packets received, count"
scalar FloodingNetwork.host[0].udp packetReceived:sum(packetBytes) 0
attr interpolationmode none
attr source packetReceived
attr title "packets received, sum(packetBytes)"
scalar FloodingNetwork.host[0].udp packetSent:count 0
attr interpolationmode none
attr source packetSent
attr title "packets sent, count"
scalar FloodingNetwork.host[0].udp packetSent:sum(packetBytes) 0
attr interpolationmode none
attr source packetSent
attr title "packets sent, sum(packetBytes)"
scalar FloodingNetwork.host[0].udp passedUpPk:count 0
attr interpolationmode none
attr source packetSentToUpper
attr title "packets passed up, count"
scalar FloodingNetwork.host[0].udp droppedPkWrongPort:count 0
attr interpolationmode none
attr source packetDropReasonIsNoPortFound(packetDropped)
attr title "packets dropped (wrong port), count"
scalar FloodingNetwork.host[0].udp droppedPkBadChecksum:count 0
attr interpolationmode none
attr source packetDropReasonIsIncorrectlyReceived(packetDropped)
attr title "packets dropped (checksum error), count"
scalar FloodingNetwork.host[0].app[0] pingRxSeq:count 0
attr interpolationmode none
attr title "ping rx seq, count"
scalar FloodingNetwork.host[0].app[0] pingTxSeq:count 0
attr interpolationmode none
attr title "ping tx seq, count"
scalar FloodingNetwork.host[0].app[0] numOutOfOrderArrivals:last nan
attr interpolationmode none
attr title "ping out-of-order arrivals, last"
scalar FloodingNetwork.host[0].app[0] numLost:last nan
attr interpolationmode none
attr title "pings lost, last"
statistic FloodingNetwork.host[0].app[0] rtt:histogram
field count 0
field mean -nan
field stddev -nan
field min -nan
field max -nan
field sum 0
field sqrsum 0
attr interpolationmode none
attr title "ping round-trip time, histogram"
attr unit s
bin	-inf	0
bin	0	0
bin	1	0
scalar FloodingNetwork.host[0].app[1] packetReceived:count 0
attr interpolationmode none
attr source packetReceived
attr title "packets received, count"
scalar FloodingNetwork.host[0].app[1] packetReceived:sum(packetBytes) 0
attr interpolationmode none
attr source packetReceived
attr title "packets received, sum(packetBytes)"
statistic FloodingNetwork.host[0].app[1] endToEndDelay:histogram
field count 0
field mean -nan
field stddev -nan
field min -nan
field max -nan
field sum 0
field sqrsum 0
attr interpolationmode none
attr source dataAge(packetReceived)
attr title "end-to-end delay, histogram"
attr unit s
bin	-inf	0
bin	0	0
bin	1	0
scalar FloodingNetwork.host[1].lo[0].lo rcvdPkFromHl:count 0
attr interpolationmode none
attr source packetReceivedFromUpper
attr title "packets received from higher layer, count"
scalar FloodingNetwork.host[1].lo[0].lo rcvdPkFromHl:sum(packetBytes) 0
attr interpolationmode none
attr source packetReceivedFromUpper
attr title "packets received from higher layer, sum(packetBytes)"
scalar FloodingNetwork.host[1].lo[0].lo passedUpPk:count 0
attr interpolationmode none
attr source packetSentToUpper
attr title "packets passed to higher layer, count"
scalar FloodingNetwork.host[1].lo[0].lo passedUpPk:sum(packetBytes) 0
attr interpolationmode none
attr source packetSentToUpper
attr title "packets passed to higher layer, sum(packetBytes)"
scalar FloodingNetwork.host[1].wlan[0].mac.dcf.channelAccess.pendingQueue packetPopped:count 1
attr interpolationmode none
attr title "packet popped, count"
scalar FloodingNetwork.host[1].wlan[0].mac.dcf.channelAccess.pendingQueue packetPopped:sum(packetBytes) 108
attr interpolationmode none
attr title "packet popped, sum(packetBytes)"
statistic FloodingNetwork.host[1].wlan[0].mac.dcf.channelAccess.pendingQueue queueingTime:histogram
field count 1
field mean 0.00049
field stddev -nan
field min 0.00049
field max 0.00049
field sum 0.00049
field sqrsum 2.401e-07
attr interpolationmode none
attr source queueingTime(packetPopped)
attr title "queueing times, histogram"
attr unit s
bin	-inf	0
bin	0	1
bin	0.01	0
bin	0.02	0
bin	0.03	0
bin	0.04	0
bin	0.05	0
bin	0.06	0
bin	0.07	0
bin	0.08	0
bin	0.09	0
bin	0.1	0
bin	0.11	0
bin	0.12	0
bin	0.13	0
bin	0.14	0
bin	0.15	0
bin	0.16	0
bin	0.17	0
bin	0.18	0
bin	0.19	0
bin	0.2	0
bin	0.21	0
bin	0.22	0
bin	0.23	0
bin	0.24	0
bin	0.25	0
bin	0.26	0
bin	0.27	0
bin	0.28	0
bin	0.29	0
bin	0.3	0
bin	0.31	0
bin	0.32	0
bin	0.33	0
bin	0.34	0
bin	0.35	0
bin	0.36	0
bin	0.37	0
bin	0.38	0
bin	0.39	0
bin	0.4	0
bin	0.41	0
bin	0.42	0
bin	0.43	0
bin	0.44	0
bin	0.45	0
bin	0.46	0
bin	0.47	0
bin	0.48	0
bin	0.49	0
bin	0.5	0
bin	0.51	0
scalar FloodingNetwork.host[1].wlan[0].mac.dcf.channelAccess.pendingQueue queueLength:max 1
attr interpolationmode sample-hold
attr source "count(packetPushed) - count(packetPopped) - count(packetRemoved) - count(packetDropped)"
attr title "queue length, max"
scalar FloodingNetwork.host[1].wlan[0].mac.dcf.channelAccess.pendingQueue queueLength:timeavg 0.12297037548967
attr interpolationmode sample-hold
attr source "count(packetPushed) - count(packetPopped) - count(packetRemoved) - count(packetDropped)"
attr title "queue length, timeavg"
scalar FloodingNetwork.host[1].wlan[0].mac.dcf.channelAccess.pendingQueue packetPushed:count 1
attr interpolationmode none
attr title "packet pushed, count"
scalar FloodingNetwork.host[1].wlan[0].mac.dcf.channelAccess.pendingQueue packetPushed:sum(packetBytes) 108
attr interpolationmode none
attr title "packet pushed, sum(packetBytes)"
scalar FloodingNetwork.host[1].wlan[0].mac.dcf.channelAccess.pendingQueue packetDropQueueOverflow:count 0
attr interpolationmode none
attr source packetDropReasonIsQueueOverflow(packetDropped)
attr title "packet drops: queue overflow, count"
scalar FloodingNetwork.host[1].wlan[0].mac.dcf.channelAccess.pendingQueue packetDropQueueOverflow:sum(packetBytes) 0
attr interpolationmode none
attr source packetDropReasonIsQueueOverflow(packetDropped)
attr title "packet drops: queue overflow, sum(packetBytes)"
scalar FloodingNetwork.host[1].wlan[0].mac.dcf.channelAccess.pendingQueue packetRemoved:count 0
attr interpolationmode none
attr title "packets removed, count"
scalar FloodingNetwork.host[1].wlan[0].mac.dcf.channelAccess.pendingQueue packetRemoved:sum(packetBytes) 0
attr interpolationmode none
attr title "packets removed, sum(packetBytes)"
statistic FloodingNetwork.host[1].wlan[0].mac.dcf.channelAccess.inProgressFrames queueingTime:histogram
field count 1
field mean 0.001056
field stddev -nan
field min 0.001056
field max 0.001056
field sum 0.001056
field sqrsum 1.115136e-06
attr interpolationmode none
attr source queueingTime(packetDequeued)
attr title "queueing times, histogram"
bin	-inf	0
bin	0	1
bin	0.01	0
bin	0.02	0
bin	0.03	0
bin	0.04	0
bin	0.05	0
bin	0.06	0
bin	0.07	0
bin	0.08	0
bin	0.09	0
bin	0.1	0
bin	0.11	0
bin	0.12	0
bin	0.13	0
bin	0.14	0
bin	0.15	0
bin	0.16	0
bin	0.17	0
bin	0.18	0
bin	0.19	0
bin	0.2	0
bin	0.21	0
bin	0.22	0
bin	0.23	0
bin	0.24	0
bin	0.25	0
bin	0.26	0
bin	0.27	0
bin	0.28	0
bin	0.29	0
bin	0.3	0
bin	0.31	0
bin	0.32	0
bin	0.33	0
bin	0.34	0
bin	0.35	0
bin	0.36	0
bin	0.37	0
bin	0.38	0
bin	0.39	0
bin	0.4	0
bin	0.41	0
bin	0.42	0
bin	0.43	0
bin	0.44	0
bin	0.45	0
bin	0.46	0
bin	0.47	0
bin	0.48	0
bin	0.49	0
bin	0.5	0
bin	0.51	0
scalar FloodingNetwork.host[1].wlan[0].mac.dcf.channelAccess.inProgressFrames queueLength:max 1
attr interpolationmode sample-hold
attr source "count(packetEnqueued) - count(packetDequeued)"
attr title "queue length, max"
scalar FloodingNetwork.host[1].wlan[0].mac.dcf.channelAccess.inProgressFrames queueLength:timeavg 0.30217189906864
attr interpolationmode sample-hold
attr source "count(packetEnqueued) - count(packetDequeued)"
attr title "queue length, timeavg"
scalar FloodingNetwork.host[1].wlan[0].mac.dcf.channelAccess.contention channelAccessGranted:count 1
attr title "channel access granted, count"
scalar FloodingNetwork.host[1].wlan[0].mac.dcf.channelAccess.contention stateChanged:count 18
attr interpolationmode none
attr title "contention state changed, count"
scalar FloodingNetwork.host[1].wlan[0].mac.dcf.channelAccess channelOwnershipChanged:count 2
attr interpolationmode sample-hold
attr title "channel ownership, count"
scalar FloodingNetwork.host[1].wlan[0].mac.dcf.originatorMacDataService packetAggregated:count 0
attr title "packets aggregated, count"
scalar FloodingNetwork.host[1].wlan[0].mac.dcf.originatorMacDataService packetFragmented:count 0
attr title "packets fragmented, count"
scalar FloodingNetwork.host[1].wlan[0].mac.dcf.recipientMacDataService packetDeaggregated:count 0
attr title "packets deaggregated, count"
scalar FloodingNetwork.host[1].wlan[0].mac.dcf.recipientMacDataService packetDefragmented:count 1
attr title "packets defragmented, count"
scalar FloodingNetwork.host[1].wlan[0].mac.dcf.recipientMacDataService packetDropDuplicateDetected:count 0
attr interpolationmode none
attr source packetDropReasonIsDuplicateDetected(packetDropped)
attr title "packet drops: duplicate detected, count"
scalar FloodingNetwork.host[1].wlan[0].mac.dcf.recipientMacDataService packetDropDuplicateDetected:sum(packetBytes) 0
attr interpolationmode none
attr source packetDropReasonIsDuplicateDetected(packetDropped)
attr title "packet drops: duplicate detected, sum(packetBytes)"
scalar FloodingNetwork.host[1].wlan[0].mac.dcf.recoveryProcedure retryLimitReached:count 0
attr title "retry limit reached, count"
scalar FloodingNetwork.host[1].wlan[0].mac.dcf frameSequenceFinished:count 1
attr title "finished frame sequences, count"
statistic FloodingNetwork.host[1].wlan[0].mac.dcf frameSequenceDuration:histogram
field count 1
field mean 0.001056
field stddev -nan
field min 0.001056
field max 0.001056
field sum 0.001056
field sqrsum 1.115136e-06
attr source frameSequenceDuration(frameSequenceFinished)
attr title "frame sequence durations, histogram"
bin	-inf	0
bin	0	1
bin	0.01	0
bin	0.02	0
bin	0.03	0
bin	0.04	0
bin	0.05	0
bin	0.06	0
bin	0.07	0
bin	0.08	0
bin	0.09	0
bin	0.1	0
bin	0.11	0
bin	0.12	0
bin	0.13	0
bin	0.14	0
bin	0.15	0
bin	0.16	0
bin	0.17	0
bin	0.18	0
bin	0.19	0
bin	0.2	0
bin	0.21	0
bin	0.22	0
bin	0.23	0
bin	0.24	0
bin	0.25	0
bin	0.26	0
bin	0.27	0
bin	0.28	0
bin	0.29	0
bin	0.3	0
bin	0.31	0
bin	0.32	0
bin	0.33	0
bin	0.34	0
bin	0.35	0
bin	0.36	0
bin	0.37	0
bin	0.38	0
bin	0.39	0
bin	0.4	0
bin	0.41	0
bin	0.42	0
bin	0.43	0
bin	0.44	0
bin	0.45	0
bin	0.46	0
bin	0.47	0
bin	0.48	0
bin	0.49	0
bin	0.5	0
bin	0.51	0
statistic FloodingNetwork.host[1].wlan[0].mac.dcf frameSequenceNumPackets:histogram
field count 1
field mean 1
field stddev -nan
field min 1
field max 1
field sum 1
field sqrsum 1
attr source frameSequenceNumPackets(frameSequenceFinished)
attr title "frame sequences: number of packets, histogram"
bin	-inf	0
bin	0	0
bin	1	1
bin	2	0
scalar FloodingNetwork.host[1].wlan[0].mac.dcf packetReceivedFromPeer:count 1
attr interpolationmode none
attr title "packets received, count"
scalar FloodingNetwork.host[1].wlan[0].mac.dcf packetReceivedFromPeer:sum(packetBytes) 108
attr interpolationmode none
attr title "packets received, sum(packetBytes)"
scalar FloodingNetwork.host[1].wlan[0].mac.dcf packetReceivedFromPeerUnicast:count 0
attr interpolationmode none
attr source ieee80211Unicast(packetReceivedFromPeer)
attr title "packets received: unicast, count"
scalar FloodingNetwork.host[1].wlan[0].mac.dcf packetReceivedFromPeerUnicast:sum(packetBytes) 0
attr interpolationmode none
attr source ieee80211Unicast(packetReceivedFromPeer)
attr title "packets received: unicast, sum(packetBytes)"
scalar FloodingNetwork.host[1].wlan[0].mac.dcf packetReceivedFromPeerMulticast:count 1
attr interpolationmode none
attr source ieee80211Multicast(packetReceivedFromPeer)
attr title "packets received: multicast, count"
scalar FloodingNetwork.host[1].wlan[0].mac.dcf packetReceivedFromPeerMulticast:sum(packetBytes) 108
attr interpolationmode none
attr source ieee80211Multicast(packetReceivedFromPeer)
attr title "packets received: multicast, sum(packetBytes)"
scalar FloodingNetwork.host[1].wlan[0].mac.dcf packetReceivedFromPeerBroadcast:count 1
attr interpolationmode none
attr source ieee80211Broadcast(packetReceivedFromPeer)
attr title "packets received: broadcast, count"
scalar FloodingNetwork.host[1].wlan[0].mac.dcf packetReceivedFromPeerBroadcast:sum(packetBytes) 108
attr interpolationmode none
attr source ieee80211Broadcast(packetReceivedFromPeer)
attr title "packets received: broadcast, sum(packetBytes)"
scalar FloodingNetwork.host[1].wlan[0].mac.dcf packetReceivedFromPeerWithRetry:count 0
attr interpolationmode none
attr source ieee80211Retry(packetReceivedFromPeer)
attr title "packets received: with retry, count"
scalar FloodingNetwork.host[1].wlan[0].mac.dcf packetReceivedFromPeerWithRetry:sum(packetBytes) 0
attr interpolationmode none
attr source ieee80211Retry(packetReceivedFromPeer)
attr title "packets received: with retry, sum(packetBytes)"
scalar FloodingNetwork.host[1].wlan[0].mac.dcf packetReceivedFromPeerWithoutRetry:count 1
attr interpolationmode none
attr source ieee80211NotRetry(packetReceivedFromPeer)
attr title "packets received: without retry, count"
scalar FloodingNetwork.host[1].wlan[0].mac.dcf packetReceivedFromPeerWithoutRetry:sum(packetBytes) 108
attr interpolationmode none
attr source ieee80211NotRetry(packetReceivedFromPeer)
attr title "packets received: without retry, sum(packetBytes)"
scalar FloodingNetwork.host[1].wlan[0].mac.dcf packetSentToPeer:count 1
attr interpolationmode none
attr title "packets sent, count"
scalar FloodingNetwork.host[1].wlan[0].mac.dcf packetSentToPeer:sum(packetBytes) 108
attr interpolationmode none
attr title "packets sent, sum(packetBytes)"
scalar FloodingNetwork.host[1].wlan[0].mac.dcf packetSentToPeerUnicast:count 0
attr interpolationmode none
attr source ieee80211Unicast(packetSentToPeer)
attr title "packets sent: unicast, count"
scalar FloodingNetwork.host[1].wlan[0].mac.dcf packetSentToPeerUnicast:sum(packetBytes) 0
attr interpolationmode none
attr source ieee80211Unicast(packetSentToPeer)
attr title "packets sent: unicast, sum(packetBytes)"
scalar FloodingNetwork.host[1].wlan[0].mac.dcf packetSentToPeerMulticast:count 1
attr interpolationmode none
attr source ieee80211Multicast(packetSentToPeer)
attr title "packets sent: multicast, count"
scalar FloodingNetwork.host[1].wlan[0].mac.dcf packetSentToPeerMulticast:sum(packetBytes) 108
attr interpolationmode none
attr source ieee80211Multicast(packetSentToPeer)
attr title "packets sent: multicast, sum(packetBytes)"
scalar FloodingNetwork.host[1].wlan[0].mac.dcf packetSentToPeerBroadcast:count 1
attr interpolationmode none
attr source ieee80211Broadcast(packetSentToPeer)
attr title "packets sent: broadcast , count"
scalar FloodingNetwork.host[1].wlan[0].mac.dcf packetSentToPeerBroadcast:sum(packetBytes) 108
attr interpolationmode none
attr source ieee80211Broadcast(packetSentToPeer)
attr title "packets sent: broadcast , sum(packetBytes)"
scalar FloodingNetwork.host[1].wlan[0].mac.dcf packetSentToPeerWithRetry:count 0
attr interpolationmode none
attr source ieee80211Retry(packetSentToPeer)
attr title "packets sent: with retry, count"
scalar FloodingNetwork.host[1].wlan[0].mac.dcf packetSentToPeerWithRetry:sum(packetBytes) 0
attr interpolationmode none
attr source ieee80211Retry(packetSentToPeer)
attr title "packets sent: with retry, sum(packetBytes)"
scalar FloodingNetwork.host[1].wlan[0].mac.dcf packetSentToPeerWithoutRetry:count 1
attr interpolationmode none
attr source ieee80211NotRetry(packetSentToPeer)
attr title "packets sent: without retry, count"
scalar FloodingNetwork.host[1].wlan[0].mac.dcf packetSentToPeerWithoutRetry:sum(packetBytes) 108
attr interpolationmode none
attr source ieee80211NotRetry(packetSentToPeer)
attr title "packets sent: without retry, sum(packetBytes)"
scalar FloodingNetwork.host[1].wlan[0].mac.dcf packetDrop:count 0
attr interpolationmode none
attr source packetDropped
attr title "packet drops, count"
scalar FloodingNetwork.host[1].wlan[0].mac.dcf packetDrop:sum(packetBytes) 0
attr interpolationmode none
attr source packetDropped
attr title "packet drops, sum(packetBytes)"
scalar FloodingNetwork.host[1].wlan[0].mac.dcf packetDropNotAddressedToUs:count 0
attr interpolationmode none
attr source packetDropReasonIsNotAddressedToUs(packetDropped)
attr title "packet drops: not addressed to us, count"
scalar FloodingNetwork.host[1].wlan[0].mac.dcf packetDropNotAddressedToUs:sum(packetBytes) 0
attr interpolationmode none
attr source packetDropReasonIsNotAddressedToUs(packetDropped)
attr title "packet drops: not addressed to us, sum(packetBytes)"
scalar FloodingNetwork.host[1].wlan[0].mac.dcf packetDropQueueOverflow:count 0
attr interpolationmode none
attr source packetDropReasonIsQueueOverflow(packetDropped)
attr title "packet drops: queue overflow, count"
scalar FloodingNetwork.host[1].wlan[0].mac.dcf packetDropQueueOverflow:sum(packetBytes) 0
attr interpolationmode none
attr source packetDropReasonIsQueueOverflow(packetDropped)
attr title "packet drops: queue overflow, sum(packetBytes)"
scalar FloodingNetwork.host[1].wlan[0].mac.dcf packetDropRetryLimitReached:count 0
attr interpolationmode none
attr source packetDropReasonIsRetryLimitReached(packetDropped)
attr title "packet drops: retry limit reached, count"
scalar FloodingNetwork.host[1].wlan[0].mac.dcf packetDropRetryLimitReached:sum(packetBytes) 0
attr interpolationmode none
attr source packetDropReasonIsRetryLimitReached(packetDropped)
attr title "packet drops: retry limit reached, sum(packetBytes)"
scalar FloodingNetwork.host[1].wlan[0].mac.dcf linkBroken:count 0
attr interpolationmode none
attr title "link breaks, count"
scalar FloodingNetwork.host[1].wlan[0].mac packetReceivedFromLower:count 2
attr interpolationmode none
attr title "packets received from lower layer, count"
scalar FloodingNetwork.host[1].wlan[0].mac packetReceivedFromLower:sum(packetBytes) 216
attr interpolationmode none
attr title "packets received from lower layer, sum(packetBytes)"
scalar FloodingNetwork.host[1].wlan[0].mac packetSentToLower:count 1
attr interpolationmode none
attr title "packets sent to lower layer, count"
scalar FloodingNetwork.host[1].wlan[0].mac packetSentToLower:sum(packetBytes) 108
attr interpolationmode none
attr title "packets sent to lower layer, sum(packetBytes)"
scalar FloodingNetwork.host[1].wlan[0].mac packetReceivedFromUpper:count 1
attr interpolationmode none
attr title "packets received from upper layer, count"
scalar FloodingNetwork.host[1].wlan[0].mac packetReceivedFromUpper:sum(packetBytes) 80
attr interpolationmode none
attr title "packets received from upper layer, sum(packetBytes)"
scalar FloodingNetwork.host[1].wlan[0].mac packetSentToUpper:count 1
attr interpolationmode none
attr title "packets sent to upper layer, count"
scalar FloodingNetwork.host[1].wlan[0].mac packetSentToUpper:sum(packetBytes) 80
attr interpolationmode none
attr title "packets sent to upper layer, sum(packetBytes)"
scalar FloodingNetwork.host[1].wlan[0].mac packetDrop:count 1
attr interpolationmode none
attr source packetDropped
attr title "packet drops, count"
scalar FloodingNetwork.host[1].wlan[0].mac packetDrop:sum(packetBytes) 108
attr interpolationmode none
attr source packetDropped
attr title "packet drops, sum(packetBytes)"
scalar FloodingNetwork.host[1].wlan[0].mac packetDropIncorrectlyReceived:count 1
attr interpolationmode none
attr source packetDropReasonIsIncorrectlyReceived(packetDropped)
attr title "packet drops: incorrectly received, count"
scalar FloodingNetwork.host[1].wlan[0].mac packetDropIncorrectlyReceived:sum(packetBytes) 108
attr interpolationmode none
attr source packetDropReasonIsIncorrectlyReceived(packetDropped)
attr title "packet drops: incorrectly received, sum(packetBytes)"
scalar FloodingNetwork.host[1].wlan[0].mac packetDropNotAddressedToUs:count 0
attr interpolationmode none
attr source packetDropReasonIsNotAddressedToUs(packetDropped)
attr title "packet drops: not addressed to us, count"
scalar FloodingNetwork.host[1].wlan[0].mac packetDropNotAddressedToUs:sum(packetBytes) 0
attr interpolationmode none
attr source packetDropReasonIsNotAddressedToUs(packetDropped)
attr title "packet drops: not addressed to us, sum(packetBytes)"
scalar FloodingNetwork.host[1].wlan[0].mac packetDropQueueOverflow:count 0
attr interpolationmode none
attr source packetDropReasonIsQueueOverflow(packetDropped)
attr title "packet drops: queue overflow, count"
scalar FloodingNetwork.host[1].wlan[0].mac packetDropQueueOverflow:sum(packetBytes) 0
attr interpolationmode none
attr source packetDropReasonIsQueueOverflow(packetDropped)
attr title "packet drops: queue overflow, sum(packetBytes)"
scalar FloodingNetwork.host[1].wlan[0].mac packetDropRetryLimitReached:count 0
attr interpolationmode none
attr source packetDropReasonIsRetryLimitReached(packetDropped)
attr title "packet drops: retry limit reached, count"
scalar FloodingNetwork.host[1].wlan[0].mac packetDropRetryLimitReached:sum(packetBytes) 0
attr interpolationmode none
attr source packetDropReasonIsRetryLimitReached(packetDropped)
attr title "packet drops: retry limit reached, sum(packetBytes)"
scalar FloodingNetwork.host[1].wlan[0].mac packetDropDuplicateDetected:count 0
attr interpolationmode none
attr source packetDropReasonIsDuplicateDetected(packetDropped)
attr title "packet drops: duplicate detected, count"
scalar FloodingNetwork.host[1].wlan[0].mac packetDropDuplicateDetected:sum(packetBytes) 0
attr interpolationmode none
attr source packetDropReasonIsDuplicateDetected(packetDropped)
attr title "packet drops: duplicate detected, sum(packetBytes)"
scalar FloodingNetwork.host[1].wlan[0].mac packetDropOther:count 0
attr interpolationmode none
attr source packetDropReasonIsOther(packetDropped)
attr title "packet drops: other, count"
scalar FloodingNetwork.host[1].wlan[0].mac packetDropOther:sum(packetBytes) 0
attr interpolationmode none
attr source packetDropReasonIsOther(packetDropped)
attr title "packet drops: other, sum(packetBytes)"
scalar FloodingNetwork.host[1].wlan[0].mac linkBroken:count 0
attr interpolationmode none
attr title "link breaks, count"
statistic FloodingNetwork.host[1].wlan[0].radio radioChannel:histogram
field count 1
field mean 0
field stddev -nan
field min 0
field max 0
field sum 0
field sqrsum 0
attr interpolationmode sample-hold
attr source radioChannelChanged
attr title "Radio channel, histogram"
bin	-inf	0
bin	-0.5	0
bin	-0.48	0
bin	-0.46	0
bin	-0.44	0
bin	-0.42	0
bin	-0.4	0
bin	-0.38	0
bin	-0.36	0
bin	-0.34	0
bin	-0.32	0
bin	-0.3	0
bin	-0.28	0
bin	-0.26	0
bin	-0.24	0
bin	-0.22	0
bin	-0.2	0
bin	-0.18	0
bin	-0.16	0
bin	-0.14	0
bin	-0.12	0
bin	-0.1	0
bin	-0.08	0
bin	-0.06	0
bin	-0.04	0
bin	-0.02	0
bin	0	1
bin	0.02	0
bin	0.04	0
bin	0.06	0
bin	0.08	0
bin	0.1	0
bin	0.12	0
bin	0.14	0
bin	0.16	0
bin	0.18	0
bin	0.2	0
bin	0.22	0
bin	0.24	0
bin	0.26	0
bin	0.28	0
bin	0.3	0
bin	0.32	0
bin	0.34	0
bin	0.36	0
bin	0.38	0
bin	0.4	0
bin	0.42	0
bin	0.44	0
bin	0.46	0
bin	0.48	0
bin	0.5	0
scalar FloodingNetwork.host[1].wlan[0].radio radioMode:count 5
attr interpolationmode sample-hold
attr source radioModeChanged
attr title "Radio mode, count"
scalar FloodingNetwork.host[1].wlan[0].radio receptionState:count 9
attr interpolationmode sample-hold
attr source receptionStateChanged
attr title "Radio reception state, count"
scalar FloodingNetwork.host[1].wlan[0].radio transmissionState:count 4
attr interpolationmode sample-hold
attr source transmissionStateChanged
attr title "Radio transmission state, count"
statistic FloodingNetwork.host[1].wlan[0].radio minSnir:histogram
field count 2
field mean 23.809056989009
field stddev 28.177714139112
field min 3.8844042429066
field max 43.733709735111
field sum 47.618113978018
field sqrsum 1927.7259635173
attr source minimumSnir(packetSentToUpper)
attr title "Min SNIR, histogram"
bin	-inf	0
bin	0	0
bin	1	0
bin	2	0
bin	3	1
bin	4	0
bin	5	0
bin	6	0
bin	7	0
bin	8	0
bin	9	0
bin	10	0
bin	11	0
bin	12	0
bin	13	0
bin	14	0
bin	15	0
bin	16	0
bin	17	0
bin	18	0
bin	19	0
bin	20	0
bin	21	0
bin	22	0
bin	23	0
bin	24	0
bin	25	0
bin	26	0
bin	27	0
bin	28	0
bin	29	0
bin	30	0
bin	31	0
bin	32	0
bin	33	0
bin	34	0
bin	35	0
bin	36	0
bin	37	0
bin	38	0
bin	39	0
bin	40	0
bin	41	0
bin	42	0
bin	43	1
bin	44	0
bin	45	0
bin	46	0
bin	47	0
bin	48	0
bin	49	0
bin	50	0
bin	51	0
bin	52	0
bin	53	0
bin	54	0
statistic FloodingNetwork.host[1].wlan[0].radio packetErrorRate:histogram
field count 2
field mean 0.087667964062717
field stddev 0.12398122376313
field min 0
field max 0.17533592812543
field sum 0.17533592812543
field sqrsum 0.030742687691608
attr source packetErrorRate(packetSentToUpper)
attr title "Packet error rate, histogram"
bin	-inf	0
bin	0	1
bin	0.005	0
bin	0.01	0
bin	0.015	0
bin	0.02	0
bin	0.025	0
bin	0.03	0
bin	0.035	0
bin	0.04	0
bin	0.045	0
bin	0.05	0
bin	0.055	0
bin	0.06	0
bin	0.065	0
bin	0.07	0
bin	0.075	0
bin	0.08	0
bin	0.085	0
bin	0.09	0
bin	0.095	0
bin	0.1	0
bin	0.105	0
bin	0.11	0
bin	0.115	0
bin	0.12	0
bin	0.125	0
bin	0.13	0
bin	0.135	0
bin	0.14	0
bin	0.145	0
bin	0.15	0
bin	0.155	0
bin	0.16	0
bin	0.165	0
bin	0.17	0
bin	0.175	1
bin	0.18	0
bin	0.185	0
bin	0.19	0
bin	0.195	0
bin	0.2	0
bin	0.205	0
bin	0.21	0
bin	0.215	0
bin	0.22	0
statistic FloodingNetwork.host[1].wlan[0].radio bitErrorRate:histogram
field count 0
field mean -nan
field stddev -nan
field min -nan
field max -nan
field sum 0
field sqrsum 0
attr source bitErrorRate(packetSentToUpper)
attr title "Bit error rate, histogram"
bin	-inf	0
bin	0	0
bin	1	0
statistic FloodingNetwork.host[1].wlan[0].radio symbolErrorRate:histogram
field count 0
field mean -nan
field stddev -nan
field min -nan
field max -nan
field sum 0
field sqrsum 0
attr source symbolErrorRate(packetSentToUpper)
attr title "Symbol error rate, histogram"
bin	-inf	0
bin	0	0
bin	1	0
scalar FloodingNetwork.host[1].generic.np nbDataPacketsReceived 0
scalar FloodingNetwork.host[1].generic.np nbDataPacketsSent 0
scalar FloodingNetwork.host[1].generic.np nbDataPacketsForwarded 1
scalar FloodingNetwork.host[1].generic.np meanNbHops 0
scalar FloodingNetwork.host[1].udp packetReceived:count 0
attr interpolationmode none
attr source packetReceived
attr title "packets received, count"
scalar FloodingNetwork.host[1].udp packetReceived:sum(packetBytes) 0
attr interpolationmode none
attr source packetReceived
attr title "packets received, sum(packetBytes)"
scalar FloodingNetwork.host[1].udp packetSent:count 0
attr interpolationmode none
attr source packetSent
attr title "packets sent, count"
scalar FloodingNetwork.host[1].udp packetSent:sum(packetBytes) 0
attr interpolationmode none
attr source packetSent
attr title "packets sent, sum(packetBytes)"
scalar FloodingNetwork.host[1].udp passedUpPk:count 0
attr interpolationmode none
attr source packetSentToUpper
attr title "packets passed up, count"
scalar FloodingNetwork.host[1].udp droppedPkWrongPort:count 0
attr interpolationmode none
attr source packetDropReasonIsNoPortFound(packetDropped)
attr title "packets dropped (wrong port), count"
scalar FloodingNetwork.host[1].udp droppedPkBadChecksum:count 0
attr interpolationmode none
attr source packetDropReasonIsIncorrectlyReceived(packetDropped)
attr title "packets dropped (checksum error), count"
scalar FloodingNetwork.host[1].app[0] pingRxSeq:count 0
attr interpolationmode none
attr title "ping rx seq, count"
scalar FloodingNetwork.host[1].app[0] pingTxSeq:count 0
attr interpolationmode none
attr title "ping tx seq, count"
scalar FloodingNetwork.host[1].app[0] numOutOfOrderArrivals:last nan
attr interpolationmode none
attr title "ping out-of-order arrivals, last"
scalar FloodingNetwork.host[1].app[0] numLost:last nan
attr interpolationmode none
attr title "pings lost, last"
statistic FloodingNetwork.host[1].app[0] rtt:histogram
field count 0
field mean -nan
field stddev -nan
field min -nan
field max -nan
field sum 0
field sqrsum 0
attr interpolationmode none
attr title "ping round-trip time, histogram"
attr unit s
bin	-inf	0
bin	0	0
bin	1	0
scalar FloodingNetwork.host[1].app[1] packetReceived:count 0
attr interpolationmode none
attr source packetReceived
attr title "packets received, count"
scalar FloodingNetwork.host[1].app[1] packetReceived:sum(packetBytes) 0
attr interpolationmode none
attr source packetReceived
attr title "packets received, sum(packetBytes)"
statistic FloodingNetwork.host[1].app[1] endToEndDelay:histogram
field count 0
field mean -nan
field stddev -nan
field min -nan
field max -nan
field sum 0
field sqrsum 0
attr interpolationmode none
attr source dataAge(packetReceived)
attr title "end-to-end delay, histogram"
attr unit s
bin	-inf	0
bin	0	0
bin	1	0
scalar FloodingNetwork.host[2].lo[0].lo rcvdPkFromHl:count 0
attr interpolationmode none
attr source packetReceivedFromUpper
attr title "packets received from higher layer, count"
scalar FloodingNetwork.host[2].lo[0].lo rcvdPkFromHl:sum(packetBytes) 0
attr interpolationmode none
attr source packetReceivedFromUpper
attr title "packets received from higher layer, sum(packetBytes)"
scalar FloodingNetwork.host[2].lo[0].lo passedUpPk:count 0
attr interpolationmode none
attr source packetSentToUpper
attr title "packets passed to higher layer, count"
scalar FloodingNetwork.host[2].lo[0].lo passedUpPk:sum(packetBytes) 0
attr interpolationmode none
attr source packetSentToUpper
attr title "packets passed to higher layer, sum(packetBytes)"
scalar FloodingNetwork.host[2].wlan[0].mac.dcf.channelAccess.pendingQueue packetPopped:count 0
attr interpolationmode none
attr title "packet popped, count"
scalar FloodingNetwork.host[2].wlan[0].mac.dcf.channelAccess.pendingQueue packetPopped:sum(packetBytes) 0
attr interpolationmode none
attr title "packet popped, sum(packetBytes)"
statistic FloodingNetwork.host[2].wlan[0].mac.dcf.channelAccess.pendingQueue queueingTime:histogram
field count 0
field mean -nan
field stddev -nan
field min -nan
field max -nan
field sum 0
field sqrsum 0
attr interpolationmode none
attr source queueingTime(packetPopped)
attr title "queueing times, histogram"
attr unit s
bin	-inf	0
bin	0	0
bin	1	0
scalar FloodingNetwork.host[2].wlan[0].mac.dcf.channelAccess.pendingQueue queueLength:max -nan
attr interpolationmode sample-hold
attr source "count(packetPushed) - count(packetPopped) - count(packetRemoved) - count(packetDropped)"
attr title "queue length, max"
scalar FloodingNetwork.host[2].wlan[0].mac.dcf.channelAccess.pendingQueue queueLength:timeavg -nan
attr interpolationmode sample-hold
attr source "count(packetPushed) - count(packetPopped) - count(packetRemoved) - count(packetDropped)"
attr title "queue length, timeavg"
scalar FloodingNetwork.host[2].wlan[0].mac.dcf.channelAccess.pendingQueue packetPushed:count 0
attr interpolationmode none
attr title "packet pushed, count"
scalar FloodingNetwork.host[2].wlan[0].mac.dcf.channelAccess.pendingQueue packetPushed:sum(packetBytes) 0
attr interpolationmode none
attr title "packet pushed, sum(packetBytes)"
scalar FloodingNetwork.host[2].wlan[0].mac.dcf.channelAccess.pendingQueue packetDropQueueOverflow:count 0
attr interpolationmode none
attr source packetDropReasonIsQueueOverflow(packetDropped)
attr title "packet drops: queue overflow, count"
scalar FloodingNetwork.host[2].wlan[0].mac.dcf.channelAccess.pendingQueue packetDropQueueOverflow:sum(packetBytes) 0
attr interpolationmode none
attr source packetDropReasonIsQueueOverflow(packetDropped)
attr title "packet drops: queue overflow, sum(packetBytes)"
scalar FloodingNetwork.host[2].wlan[0].mac.dcf.channelAccess.pendingQueue packetRemoved:count 0
attr interpolationmode none
attr title "packets removed, count"
scalar FloodingNetwork.host[2].wlan[0].mac.dcf.channelAccess.pendingQueue packetRemoved:sum(packetBytes) 0
attr interpolationmode none
attr title "packets removed, sum(packetBytes)"
statistic FloodingNetwork.host[2].wlan[0].mac.dcf.channelAccess.inProgressFrames queueingTime:histogram
field count 0
field mean -nan
field stddev -nan
field min -nan
field max -nan
field sum 0
field sqrsum 0
attr interpolationmode none
attr source queueingTime(packetDequeued)
attr title "queueing times, histogram"
bin	-inf	0
bin	0	0
bin	1	0
scalar FloodingNetwork.host[2].wlan[0].mac.dcf.channelAccess.inProgressFrames queueLength:max -nan
attr interpolationmode sample-hold
attr source "count(packetEnqueued) - count(packetDequeued)"
attr title "queue length, max"
scalar FloodingNetwork.host[2].wlan[0].mac.dcf.channelAccess.inProgressFrames queueLength:timeavg -nan
attr interpolationmode sample-hold
attr source "count(packetEnqueued) - count(packetDequeued)"
attr title "queue length, timeavg"
scalar FloodingNetwork.host[2].wlan[0].mac.dcf.channelAccess.contention channelAccessGranted:count 0
attr title "channel access granted, count"
scalar FloodingNetwork.host[2].wlan[0].mac.dcf.channelAccess.contention stateChanged:count 10
attr interpolationmode none
attr title "contention state changed, count"
scalar FloodingNetwork.host[2].wlan[0].mac.dcf.channelAccess channelOwnershipChanged:count 0
attr interpolationmode sample-hold
attr title "channel ownership, count"
scalar FloodingNetwork.host[2].wlan[0].mac.dcf.originatorMacDataService packetAggregated:count 0
attr title "packets aggregated, count"
scalar FloodingNetwork.host[2].wlan[0].mac.dcf.originatorMacDataService packetFragmented:count 0
attr title "packets fragmented, count"
scalar FloodingNetwork.host[2].wlan[0].mac.dcf.recipientMacDataService packetDeaggregated:count 0
attr title "packets deaggregated, count"
scalar FloodingNetwork.host[2].wlan[0].mac.dcf.recipientMacDataService packetDefragmented:count 0
attr title "packets defragmented, count"
scalar FloodingNetwork.host[2].wlan[0].mac.dcf.recipientMacDataService packetDropDuplicateDetected:count 0
attr interpolationmode none
attr source packetDropReasonIsDuplicateDetected(packetDropped)
attr title "packet drops: duplicate detected, count"
scalar FloodingNetwork.host[2].wlan[0].mac.dcf.recipientMacDataService packetDropDuplicateDetected:sum(packetBytes) 0
attr interpolationmode none
attr source packetDropReasonIsDuplicateDetected(packetDropped)
attr title "packet drops: duplicate detected, sum(packetBytes)"
scalar FloodingNetwork.host[2].wlan[0].mac.dcf.recoveryProcedure retryLimitReached:count 0
attr title "retry limit reached, count"
scalar FloodingNetwork.host[2].wlan[0].mac.dcf frameSequenceFinished:count 0
attr title "finished frame sequences, count"
statistic FloodingNetwork.host[2].wlan[0].mac.dcf frameSequenceDuration:histogram
field count 0
field mean -nan
field stddev -nan
field min -nan
field max -nan
field sum 0
field sqrsum 0
attr source frameSequenceDuration(frameSequenceFinished)
attr title "frame sequence durations, histogram"
bin	-inf	0
bin	0	0
bin	1	0
statistic FloodingNetwork.host[2].wlan[0].mac.dcf frameSequenceNumPackets:histogram
field count 0
field mean -nan
field stddev -nan
field min -nan
field max -nan
field sum 0
field sqrsum 0
attr source frameSequenceNumPackets(frameSequenceFinished)
attr title "frame sequences: number of packets, histogram"
bin	-inf	0
bin	0	0
bin	1	0
scalar FloodingNetwork.host[2].wlan[0].mac.dcf packetReceivedFromPeer:count 0
attr interpolationmode none
attr title "packets received, count"
scalar FloodingNetwork.host[2].wlan[0].mac.dcf packetReceivedFromPeer:sum(packetBytes) 0
attr interpolationmode none
attr title "packets received, sum(packetBytes)"
scalar FloodingNetwork.host[2].wlan[0].mac.dcf packetReceivedFromPeerUnicast:count 0
attr interpolationmode none
attr source ieee80211Unicast(packetReceivedFromPeer)
attr title "packets received: unicast, count"
scalar FloodingNetwork.host[2].wlan[0].mac.dcf packetReceivedFromPeerUnicast:sum(packetBytes) 0
attr interpolationmode none
attr source ieee80211Unicast(packetReceivedFromPeer)
attr title "packets received: unicast, sum(packetBytes)"
scalar FloodingNetwork.host[2].wlan[0].mac.dcf packetReceivedFromPeerMulticast:count 0
attr interpolationmode none
attr source ieee80211Multicast(packetReceivedFromPeer)
attr title "packets received: multicast, count"
scalar FloodingNetwork.host[2].wlan[0].mac.dcf packetReceivedFromPeerMulticast:sum(packetBytes) 0
attr interpolationmode none
attr source ieee80211Multicast(packetReceivedFromPeer)
attr title "packets received: multicast, sum(packetBytes)"
scalar FloodingNetwork.host[2].wlan[0].mac.dcf packetReceivedFromPeerBroadcast:count 0
attr interpolationmode none
attr source ieee80211Broadcast(packetReceivedFromPeer)
attr title "packets received: broadcast, count"
scalar FloodingNetwork.host[2].wlan[0].mac.dcf packetReceivedFromPeerBroadcast:sum(packetBytes) 0
attr interpolationmode none
attr source ieee80211Broadcast(packetReceivedFromPeer)
attr title "packets received: broadcast, sum(packetBytes)"
scalar FloodingNetwork.host[2].wlan[0].mac.dcf packetReceivedFromPeerWithRetry:count 0
attr interpolationmode none
attr source ieee80211Retry(packetReceivedFromPeer)
attr title "packets received: with retry, count"
scalar FloodingNetwork.host[2].wlan[0].mac.dcf packetReceivedFromPeerWithRetry:sum(packetBytes) 0
attr interpolationmode none
attr source ieee80211Retry(packetReceivedFromPeer)
attr title "packets received: with retry, sum(packetBytes)"
scalar FloodingNetwork.host[2].wlan[0].mac.dcf packetReceivedFromPeerWithoutRetry:count 0
attr interpolationmode none
attr source ieee80211NotRetry(packetReceivedFromPeer)
attr title "packets received: without retry, count"
scalar FloodingNetwork.host[2].wlan[0].mac.dcf packetReceivedFromPeerWithoutRetry:sum(packetBytes) 0
attr interpolationmode none
attr source ieee80211NotRetry(packetReceivedFromPeer)
attr title "packets received: without retry, sum(packetBytes)"
scalar FloodingNetwork.host[2].wlan[0].mac.dcf packetSentToPeer:count 0
attr interpolationmode none
attr title "packets sent, count"
scalar FloodingNetwork.host[2].wlan[0].mac.dcf packetSentToPeer:sum(packetBytes) 0
attr interpolationmode none
attr title "packets sent, sum(packetBytes)"
scalar FloodingNetwork.host[2].wlan[0].mac.dcf packetSentToPeerUnicast:count 0
attr interpolationmode none
attr source ieee80211Unicast(packetSentToPeer)
attr title "packets sent: unicast, count"
scalar FloodingNetwork.host[2].wlan[0].mac.dcf packetSentToPeerUnicast:sum(packetBytes) 0
attr interpolationmode none
attr source ieee80211Unicast(packetSentToPeer)
attr title "packets sent: unicast, sum(packetBytes)"
scalar FloodingNetwork.host[2].wlan[0].mac.dcf packetSentToPeerMulticast:count 0
attr interpolationmode none
attr source ieee80211Multicast(packetSentToPeer)
attr title "packets sent: multicast, count"
scalar FloodingNetwork.host[2].wlan[0].mac.dcf packetSentToPeerMulticast:sum(packetBytes) 0
attr interpolationmode none
attr source ieee80211Multicast(packetSentToPeer)
attr title "packets sent: multicast, sum(packetBytes)"
scalar FloodingNetwork.host[2].wlan[0].mac.dcf packetSentToPeerBroadcast:count 0
attr interpolationmode none
attr source ieee80211Broadcast(packetSentToPeer)
attr title "packets sent: broadcast , count"
scalar FloodingNetwork.host[2].wlan[0].mac.dcf packetSentToPeerBroadcast:sum(packetBytes) 0
attr interpolationmode none
attr source ieee80211Broadcast(packetSentToPeer)
attr title "packets sent: broadcast , sum(packetBytes)"
scalar FloodingNetwork.host[2].wlan[0].mac.dcf packetSentToPeerWithRetry:count 0
attr interpolationmode none
attr source ieee80211Retry(packetSentToPeer)
attr title "packets sent: with retry, count"
scalar FloodingNetwork.host[2].wlan[0].mac.dcf packetSentToPeerWithRetry:sum(packetBytes) 0
attr interpolationmode none
attr source ieee80211Retry(packetSentToPeer)
attr title "packets sent: with retry, sum(packetBytes)"
scalar FloodingNetwork.host[2].wlan[0].mac.dcf packetSentToPeerWithoutRetry:count 0
attr interpolationmode none
attr source ieee80211NotRetry(packetSentToPeer)
attr title "packets sent: without retry, count"
scalar FloodingNetwork.host[2].wlan[0].mac.dcf packetSentToPeerWithoutRetry:sum(packetBytes) 0
attr interpolationmode none
attr source ieee80211NotRetry(packetSentToPeer)
attr title "packets sent: without retry, sum(packetBytes)"
scalar FloodingNetwork.host[2].wlan[0].mac.dcf packetDrop:count 0
attr interpolationmode none
attr source packetDropped
attr title "packet drops, count"
scalar FloodingNetwork.host[2].wlan[0].mac.dcf packetDrop:sum(packetBytes) 0
attr interpolationmode none
attr source packetDropped
attr title "packet drops, sum(packetBytes)"
scalar FloodingNetwork.host[2].wlan[0].mac.dcf packetDropNotAddressedToUs:count 0
attr interpolationmode none
attr source packetDropReasonIsNotAddressedToUs(packetDropped)
attr title "packet drops: not addressed to us, count"
scalar FloodingNetwork.host[2].wlan[0].mac.dcf packetDropNotAddressedToUs:sum(packetBytes) 0
attr interpolationmode none
attr source packetDropReasonIsNotAddressedToUs(packetDropped)
attr title "packet drops: not addressed to us, sum(packetBytes)"
scalar FloodingNetwork.host[2].wlan[0].mac.dcf packetDropQueueOverflow:count 0
attr interpolationmode none
attr source packetDropReasonIsQueueOverflow(packetDropped)
attr title "packet drops: queue overflow, count"
scalar FloodingNetwork.host[2].wlan[0].mac.dcf packetDropQueueOverflow:sum(packetBytes) 0
attr interpolationmode none
attr source packetDropReasonIsQueueOverflow(packetDropped)
attr title "packet drops: queue overflow, sum(packetBytes)"
scalar FloodingNetwork.host[2].wlan[0].mac.dcf packetDropRetryLimitReached:count 0
attr interpolationmode none
attr source packetDropReasonIsRetryLimitReached(packetDropped)
attr title "packet drops: retry limit reached, count"
scalar FloodingNetwork.host[2].wlan[0].mac.dcf packetDropRetryLimitReached:sum(packetBytes) 0
attr interpolationmode none
attr source packetDropReasonIsRetryLimitReached(packetDropped)
attr title "packet drops: retry limit reached, sum(packetBytes)"
scalar FloodingNetwork.host[2].wlan[0].mac.dcf linkBroken:count 0
attr interpolationmode none
attr title "link breaks, count"
scalar FloodingNetwork.host[2].wlan[0].mac packetReceivedFromLower:count 2
attr interpolationmode none
attr title "packets received from lower layer, count"
scalar FloodingNetwork.host[2].wlan[0].mac packetReceivedFromLower:sum(packetBytes) 216
attr interpolationmode none
attr title "packets received from lower layer, sum(packetBytes)"
scalar FloodingNetwork.host[2].wlan[0].mac packetSentToLower:count 0
attr interpolationmode none
attr title "packets sent to lower layer, count"
scalar FloodingNetwork.host[2].wlan[0].mac packetSentToLower:sum(packetBytes) 0
attr interpolationmode none
attr title "packets sent to lower layer, sum(packetBytes)"
scalar FloodingNetwork.host[2].wlan[0].mac packetReceivedFromUpper:count 0
attr interpolationmode none
attr title "packets received from upper layer, count"
scalar FloodingNetwork.host[2].wlan[0].mac packetReceivedFromUpper:sum(packetBytes) 0
attr interpolationmode none
attr title "packets received from upper layer, sum(packetBytes)"
scalar FloodingNetwork.host[2].wlan[0].mac packetSentToUpper:count 0
attr interpolationmode none
attr title "packets sent to upper layer, count"
scalar FloodingNetwork.host[2].wlan[0].mac packetSentToUpper:sum(packetBytes) 0
attr interpolationmode none
attr title "packets sent to upper layer, sum(packetBytes)"
scalar FloodingNetwork.host[2].wlan[0].mac packetDrop:count 2
attr interpolationmode none
attr source packetDropped
attr title "packet drops, count"
scalar FloodingNetwork.host[2].wlan[0].mac packetDrop:sum(packetBytes) 216
attr interpolationmode none
attr source packetDropped
attr title "packet drops, sum(packetBytes)"
scalar FloodingNetwork.host[2].wlan[0].mac packetDropIncorrectlyReceived:count 2
attr interpolationmode none
attr source packetDropReasonIsIncorrectlyReceived(packetDropped)
attr title "packet drops: incorrectly received, count"
scalar FloodingNetwork.host[2].wlan[0].mac packetDropIncorrectlyReceived:sum(packetBytes) 216
attr interpolationmode none
attr source packetDropReasonIsIncorrectlyReceived(packetDropped)
attr title "packet drops: incorrectly received, sum(packetBytes)"
scalar FloodingNetwork.host[2].wlan[0].mac packetDropNotAddressedToUs:count 0
attr interpolationmode none
attr source packetDropReasonIsNotAddressedToUs(packetDropped)
attr title "packet drops: not addressed to us, count"
scalar FloodingNetwork.host[2].wlan[0].mac packetDropNotAddressedToUs:sum(packetBytes) 0
attr interpolationmode none
attr source packetDropReasonIsNotAddressedToUs(packetDropped)
attr title "packet drops: not addressed to us, sum(packetBytes)"
scalar FloodingNetwork.host[2].wlan[0].mac packetDropQueueOverflow:count 0
attr interpolationmode none
attr source packetDropReasonIsQueueOverflow(packetDropped)
attr title "packet drops: queue overflow, count"
scalar FloodingNetwork.host[2].wlan[0].mac packetDropQueueOverflow:sum(packetBytes) 0
attr interpolationmode none
attr source packetDropReasonIsQueueOverflow(packetDropped)
attr title "packet drops: queue overflow, sum(packetBytes)"
scalar FloodingNetwork.host[2].wlan[0].mac packetDropRetryLimitReached:count 0
attr interpolationmode none
attr source packetDropReasonIsRetryLimitReached(packetDropped)
attr title "packet drops: retry limit reached, count"
scalar FloodingNetwork.host[2].wlan[0].mac packetDropRetryLimitReached:sum(packetBytes) 0
attr interpolationmode none
attr source packetDropReasonIsRetryLimitReached(packetDropped)
attr title "packet drops: retry limit reached, sum(packetBytes)"
scalar FloodingNetwork.host[2].wlan[0].mac packetDropDuplicateDetected:count 0
attr interpolationmode none
attr source packetDropReasonIsDuplicateDetected(packetDropped)
attr title "packet drops: duplicate detected, count"
scalar FloodingNetwork.host[2].wlan[0].mac packetDropDuplicateDetected:sum(packetBytes) 0
attr interpolationmode none
attr source packetDropReasonIsDuplicateDetected(packetDropped)
attr title "packet drops: duplicate detected, sum(packetBytes)"
scalar FloodingNetwork.host[2].wlan[0].mac packetDropOther:count 0
attr interpolationmode none
attr source packetDropReasonIsOther(packetDropped)
attr title "packet drops: other, count"
scalar FloodingNetwork.host[2].wlan[0].mac packetDropOther:sum(packetBytes) 0
attr interpolationmode none
attr source packetDropReasonIsOther(packetDropped)
attr title "packet drops: other, sum(packetBytes)"
scalar FloodingNetwork.host[2].wlan[0].mac linkBroken:count 0
attr interpolationmode none
attr title "link breaks, count"
statistic FloodingNetwork.host[2].wlan[0].radio radioChannel:histogram
field count 1
field mean 0
field stddev -nan
field min 0
field max 0
field sum 0
field sqrsum 0
attr interpolationmode sample-hold
attr source radioChannelChanged
attr title "Radio channel, histogram"
bin	-inf	0
bin	-0.5	0
bin	-0.48	0
bin	-0.46	0
bin	-0.44	0
bin	-0.42	0
bin	-0.4	0
bin	-0.38	0
bin	-0.36	0
bin	-0.34	0
bin	-0.32	0
bin	-0.3	0
bin	-0.28	0
bin	-0.26	0
bin	-0.24	0
bin	-0.22	0
bin	-0.2	0
bin	-0.18	0
bin	-0.16	0
bin	-0.14	0
bin	-0.12	0
bin	-0.1	0
bin	-0.08	0
bin	-0.06	0
bin	-0.04	0
bin	-0.02	0
bin	0	1
bin	0.02	0
bin	0.04	0
bin	0.06	0
bin	0.08	0
bin	0.1	0
bin	0.12	0
bin	0.14	0
bin	0.16	0
bin	0.18	0
bin	0.2	0
bin	0.22	0
bin	0.24	0
bin	0.26	0
bin	0.28	0
bin	0.3	0
bin	0.32	0
bin	0.34	0
bin	0.36	0
bin	0.38	0
bin	0.4	0
bin	0.42	0
bin	0.44	0
bin	0.46	0
bin	0.48	0
bin	0.5	0
scalar FloodingNetwork.host[2].wlan[0].radio radioMode:count 3
attr interpolationmode sample-hold
attr source radioModeChanged
attr title "Radio mode, count"
scalar FloodingNetwork.host[2].wlan[0].radio receptionState:count 6
attr interpolationmode sample-hold
attr source receptionStateChanged
attr title "Radio reception state, count"
scalar FloodingNetwork.host[2].wlan[0].radio transmissionState:count 0
attr interpolationmode sample-hold
attr source transmissionStateChanged
attr title "Radio transmission state, count"
statistic FloodingNetwork.host[2].wlan[0].radio minSnir:histogram
field count 2
field mean 1.2809769647106
field stddev 1.2554523109973
field min 0.3932381221481
field max 2.1687158072731
field sum 2.5619539294212
field sqrsum 4.8579644734266
attr source minimumSnir(packetSentToUpper)
attr title "Min SNIR, histogram"
bin	-inf	0
bin	0	0
bin	0.05	0
bin	0.1	0
bin	0.15	0
bin	0.2	0
bin	0.25	0
bin	0.3	0
bin	0.35	1
bin	0.4	0
bin	0.45	0
bin	0.5	0
bin	0.55	0
bin	0.6	0
bin	0.65	0
bin	0.7	0
bin	0.75	0
bin	0.8	0
bin	0.85	0
bin	0.9	0
bin	0.95	0
bin	1	0
bin	1.05	0
bin	1.1	0
bin	1.15	0
bin	1.2	0
bin	1.25	0
bin	1.3	0
bin	1.35	0
bin	1.4	0
bin	1.45	0
bin	1.5	0
bin	1.55	0
bin	1.6	0
bin	1.65	0
bin	1.7	0
bin	1.75	0
bin	1.8	0
bin	1.85	0
bin	1.9	0
bin	1.95	0
bin	2	0
bin	2.05	0
bin	2.1	0
bin	2.15	1
bin	2.2	0
bin	2.25	0
bin	2.3	0
bin	2.35	0
bin	2.4	0
bin	2.45	0
bin	2.5	0
bin	2.55	0
bin	2.6	0
bin	2.65	0
statistic FloodingNetwork.host[2].wlan[0].radio packetErrorRate:histogram
field count 2
field mean 0.99873495969582
field stddev 0.0017890371550993
field min 0.99746991939164
field max 1
field sum 1.9974699193916
field sqrsum 1.9949462400912
attr source packetErrorRate(packetSentToUpper)
attr title "Packet error rate, histogram"
bin	-inf	0
bin	0.9968	0
bin	0.99685	0
bin	0.9969	0
bin	0.99695	0
bin	0.997	0
bin	0.99705	0
bin	0.9971	0
bin	0.99715	0
bin	0.9972	0
bin	0.99725	0
bin	0.9973	0
bin	0.99735	0
bin	0.9974	0
bin	0.99745	1
bin	0.9975	0
bin	0.99755	0
bin	0.9976	0
bin	0.99765	0
bin	0.9977	0
bin	0.99775	0
bin	0.9978	0
bin	0.99785	0
bin	0.9979	0
bin	0.99795	0
bin	0.998	0
bin	0.99805	0
bin	0.9981	0
bin	0.99815	0
bin	0.9982	0
bin	0.99825	0
bin	0.9983	0
bin	0.99835	0
bin	0.9984	0
bin	0.99845	0
bin	0.9985	0
bin	0.99855	0
bin	0.9986	0
bin	0.99865	0
bin	0.9987	0
bin	0.99875	0
bin	0.9988	0
bin	0.99885	0
bin	0.9989	0
bin	0.99895	0
bin	0.999	0
bin	0.99905	0
bin	0.9991	0
bin	0.99915	0
bin	0.9992	0
bin	0.99925	0
bin	0.9993	0
bin	0.99935	0
bin	0.9994	0
bin	0.99945	0
bin	0.9995	0
bin	0.99955	0
bin	0.9996	0
bin	0.99965	0
bin	0.9997	0
bin	0.99975	0
bin	0.9998	0
bin	0.99985	0
bin	0.9999	0
bin	0.99995	0
bin	1	1
bin	1.00005	0
bin	1.0001	0
bin	1.00015	0
bin	1.0002	0
bin	1.00025	0
bin	1.0003	0
bin	1.00035	0
bin	1.0004	0
bin	1.00045	0
bin	1.0005	0
bin	1.00055	0
bin	1.0006	0
bin	1.00065	0
statistic FloodingNetwork.host[2].wlan[0].radio bitErrorRate:histogram
field count 0
field mean -nan
field stddev -nan
field min -nan
field max -nan
field sum 0
field sqrsum 0
attr source bitErrorRate(packetSentToUpper)
attr title "Bit error rate, histogram"
bin	-inf	0
bin	0	0
bin	1	0
[...]
scalar FloodingNetwork.host[39].wlan[0].mac.dcf.recipientMacDataService packetDropDuplicateDetected:sum(packetBytes) 0
attr interpolationmode none
attr source packetDropReasonIsDuplicateDetected(packetDropped)
attr title "packet drops: duplicate detected, sum(packetBytes)"
scalar FloodingNetwork.host[39].wlan[0].mac.dcf.recoveryProcedure retryLimitReached:count 0
attr title "retry limit reached, count"
scalar FloodingNetwork.host[39].wlan[0].mac.dcf frameSequenceFinished:count 1
attr title "finished frame sequences, count"
statistic FloodingNetwork.host[39].wlan[0].mac.dcf frameSequenceDuration:histogram
field count 1
field mean 0.001056
field stddev -nan
field min 0.001056
field max 0.001056
field sum 0.001056
field sqrsum 1.115136e-06
attr source frameSequenceDuration(frameSequenceFinished)
attr title "frame sequence durations, histogram"
bin	-inf	0
bin	0	1
bin	0.01	0
bin	0.02	0
bin	0.03	0
bin	0.04	0
bin	0.05	0
bin	0.06	0
bin	0.07	0
bin	0.08	0
bin	0.09	0
bin	0.1	0
bin	0.11	0
bin	0.12	0
bin	0.13	0
bin	0.14	0
bin	0.15	0
bin	0.16	0
bin	0.17	0
bin	0.18	0
bin	0.19	0
bin	0.2	0
bin	0.21	0
bin	0.22	0
bin	0.23	0
bin	0.24	0
bin	0.25	0
bin	0.26	0
bin	0.27	0
bin	0.28	0
bin	0.29	0
bin	0.3	0
bin	0.31	0
bin	0.32	0
bin	0.33	0
bin	0.34	0
bin	0.35	0
bin	0.36	0
bin	0.37	0
bin	0.38	0
bin	0.39	0
bin	0.4	0
bin	0.41	0
bin	0.42	0
bin	0.43	0
bin	0.44	0
bin	0.45	0
bin	0.46	0
bin	0.47	0
bin	0.48	0
bin	0.49	0
bin	0.5	0
bin	0.51	0
statistic FloodingNetwork.host[39].wlan[0].mac.dcf frameSequenceNumPackets:histogram
field count 1
field mean 1
field stddev -nan
field min 1
field max 1
field sum 1
field sqrsum 1
attr source frameSequenceNumPackets(frameSequenceFinished)
attr title "frame sequences: number of packets, histogram"
bin	-inf	0
bin	0	0
bin	1	1
bin	2	0
scalar FloodingNetwork.host[39].wlan[0].mac.dcf packetReceivedFromPeer:count 1
attr interpolationmode none
attr title "packets received, count"
scalar FloodingNetwork.host[39].wlan[0].mac.dcf packetReceivedFromPeer:sum(packetBytes) 108
attr interpolationmode none
attr title "packets received, sum(packetBytes)"
scalar FloodingNetwork.host[39].wlan[0].mac.dcf packetReceivedFromPeerUnicast:count 0
attr interpolationmode none
attr source ieee80211Unicast(packetReceivedFromPeer)
attr title "packets received: unicast, count"
scalar FloodingNetwork.host[39].wlan[0].mac.dcf packetReceivedFromPeerUnicast:sum(packetBytes) 0
attr interpolationmode none
attr source ieee80211Unicast(packetReceivedFromPeer)
attr title "packets received: unicast, sum(packetBytes)"
scalar FloodingNetwork.host[39].wlan[0].mac.dcf packetReceivedFromPeerMulticast:count 1
attr interpolationmode none
attr source ieee80211Multicast(packetReceivedFromPeer)
attr title "packets received: multicast, count"
scalar FloodingNetwork.host[39].wlan[0].mac.dcf packetReceivedFromPeerMulticast:sum(packetBytes) 108
attr interpolationmode none
attr source ieee80211Multicast(packetReceivedFromPeer)
attr title "packets received: multicast, sum(packetBytes)"
scalar FloodingNetwork.host[39].wlan[0].mac.dcf packetReceivedFromPeerBroadcast:count 1
attr interpolationmode none
attr source ieee80211Broadcast(packetReceivedFromPeer)
attr title "packets received: broadcast, count"
scalar FloodingNetwork.host[39].wlan[0].mac.dcf packetReceivedFromPeerBroadcast:sum(packetBytes) 108
attr interpolationmode none
attr source ieee80211Broadcast(packetReceivedFromPeer)
attr title "packets received: broadcast, sum(packetBytes)"
scalar FloodingNetwork.host[39].wlan[0].mac.dcf packetReceivedFromPeerWithRetry:count 0
attr interpolationmode none
attr source ieee80211Retry(packetReceivedFromPeer)
attr title "packets received: with retry, count"
scalar FloodingNetwork.host[39].wlan[0].mac.dcf packetReceivedFromPeerWithRetry:sum(packetBytes) 0
attr interpolationmode none
attr source ieee80211Retry(packetReceivedFromPeer)
attr title "packets received: with retry, sum(packetBytes)"
scalar FloodingNetwork.host[39].wlan[0].mac.dcf packetReceivedFromPeerWithoutRetry:count 1
attr interpolationmode none
attr source ieee80211NotRetry(packetReceivedFromPeer)
attr title "packets received: without retry, count"
scalar FloodingNetwork.host[39].wlan[0].mac.dcf packetReceivedFromPeerWithoutRetry:sum(packetBytes) 108
attr interpolationmode none
attr source ieee80211NotRetry(packetReceivedFromPeer)
attr title "packets received: without retry, sum(packetBytes)"
scalar FloodingNetwork.host[39].wlan[0].mac.dcf packetSentToPeer:count 1
attr interpolationmode none
attr title "packets sent, count"
scalar FloodingNetwork.host[39].wlan[0].mac.dcf packetSentToPeer:sum(packetBytes) 108
attr interpolationmode none
attr title "packets sent, sum(packetBytes)"
scalar FloodingNetwork.host[39].wlan[0].mac.dcf packetSentToPeerUnicast:count 0
attr interpolationmode none
attr source ieee80211Unicast(packetSentToPeer)
attr title "packets sent: unicast, count"
scalar FloodingNetwork.host[39].wlan[0].mac.dcf packetSentToPeerUnicast:sum(packetBytes) 0
attr interpolationmode none
attr source ieee80211Unicast(packetSentToPeer)
attr title "packets sent: unicast, sum(packetBytes)"
scalar FloodingNetwork.host[39].wlan[0].mac.dcf packetSentToPeerMulticast:count 1
attr interpolationmode none
attr source ieee80211Multicast(packetSentToPeer)
attr title "packets sent: multicast, count"
scalar FloodingNetwork.host[39].wlan[0].mac.dcf packetSentToPeerMulticast:sum(packetBytes) 108
attr interpolationmode none
attr source ieee80211Multicast(packetSentToPeer)
attr title "packets sent: multicast, sum(packetBytes)"
scalar FloodingNetwork.host[39].wlan[0].mac.dcf packetSentToPeerBroadcast:count 1
attr interpolationmode none
attr source ieee80211Broadcast(packetSentToPeer)
attr title "packets sent: broadcast , count"
scalar FloodingNetwork.host[39].wlan[0].mac.dcf packetSentToPeerBroadcast:sum(packetBytes) 108
attr interpolationmode none
attr source ieee80211Broadcast(packetSentToPeer)
attr title "packets sent: broadcast , sum(packetBytes)"
scalar FloodingNetwork.host[39].wlan[0].mac.dcf packetSentToPeerWithRetry:count 0
attr interpolationmode none
attr source ieee80211Retry(packetSentToPeer)
attr title "packets sent: with retry, count"
scalar FloodingNetwork.host[39].wlan[0].mac.dcf packetSentToPeerWithRetry:sum(packetBytes) 0
attr interpolationmode none
attr source ieee80211Retry(packetSentToPeer)
attr title "packets sent: with retry, sum(packetBytes)"
scalar FloodingNetwork.host[39].wlan[0].mac.dcf packetSentToPeerWithoutRetry:count 1
attr interpolationmode none
attr source ieee80211NotRetry(packetSentToPeer)
attr title "packets sent: without retry, count"
scalar FloodingNetwork.host[39].wlan[0].mac.dcf packetSentToPeerWithoutRetry:sum(packetBytes) 108
attr interpolationmode none
attr source ieee80211NotRetry(packetSentToPeer)
attr title "packets sent: without retry, sum(packetBytes)"
scalar FloodingNetwork.host[39].wlan[0].mac.dcf packetDrop:count 0
attr interpolationmode none
attr source packetDropped
attr title "packet drops, count"
scalar FloodingNetwork.host[39].wlan[0].mac.dcf packetDrop:sum(packetBytes) 0
attr interpolationmode none
attr source packetDropped
attr title "packet drops, sum(packetBytes)"
scalar FloodingNetwork.host[39].wlan[0].mac.dcf packetDropNotAddressedToUs:count 0
attr interpolationmode none
attr source packetDropReasonIsNotAddressedToUs(packetDropped)
attr title "packet drops: not addressed to us, count"
scalar FloodingNetwork.host[39].wlan[0].mac.dcf packetDropNotAddressedToUs:sum(packetBytes) 0
attr interpolationmode none
attr source packetDropReasonIsNotAddressedToUs(packetDropped)
attr title "packet drops: not addressed to us, sum(packetBytes)"
scalar FloodingNetwork.host[39].wlan[0].mac.dcf packetDropQueueOverflow:count 0
attr interpolationmode none
attr source packetDropReasonIsQueueOverflow(packetDropped)
attr title "packet drops: queue overflow, count"
scalar FloodingNetwork.host[39].wlan[0].mac.dcf packetDropQueueOverflow:sum(packetBytes) 0
attr interpolationmode none
attr source packetDropReasonIsQueueOverflow(packetDropped)
attr title "packet drops: queue overflow, sum(packetBytes)"
scalar FloodingNetwork.host[39].wlan[0].mac.dcf packetDropRetryLimitReached:count 0
attr interpolationmode none
attr source packetDropReasonIsRetryLimitReached(packetDropped)
attr title "packet drops: retry limit reached, count"
scalar FloodingNetwork.host[39].wlan[0].mac.dcf packetDropRetryLimitReached:sum(packetBytes) 0
attr interpolationmode none
attr source packetDropReasonIsRetryLimitReached(packetDropped)
attr title "packet drops: retry limit reached, sum(packetBytes)"
scalar FloodingNetwork.host[39].wlan[0].mac.dcf linkBroken:count 0
attr interpolationmode none
attr title "link breaks, count"
scalar FloodingNetwork.host[39].wlan[0].mac packetReceivedFromLower:count 1
attr interpolationmode none
attr title "packets received from lower layer, count"
scalar FloodingNetwork.host[39].wlan[0].mac packetReceivedFromLower:sum(packetBytes) 108
attr interpolationmode none
attr title "packets received from lower layer, sum(packetBytes)"
scalar FloodingNetwork.host[39].wlan[0].mac packetSentToLower:count 2
attr interpolationmode none
attr title "packets sent to lower layer, count"
scalar FloodingNetwork.host[39].wlan[0].mac packetSentToLower:sum(packetBytes) 216
attr interpolationmode none
attr title "packets sent to lower layer, sum(packetBytes)"
scalar FloodingNetwork.host[39].wlan[0].mac packetReceivedFromUpper:count 2
attr interpolationmode none
attr title "packets received from upper layer, count"
scalar FloodingNetwork.host[39].wlan[0].mac packetReceivedFromUpper:sum(packetBytes) 160
attr interpolationmode none
attr title "packets received from upper layer, sum(packetBytes)"
scalar FloodingNetwork.host[39].wlan[0].mac packetSentToUpper:count 1
attr interpolationmode none
attr title "packets sent to upper layer, count"
scalar FloodingNetwork.host[39].wlan[0].mac packetSentToUpper:sum(packetBytes) 80
attr interpolationmode none
attr title "packets sent to upper layer, sum(packetBytes)"
scalar FloodingNetwork.host[39].wlan[0].mac packetDrop:count 0
attr interpolationmode none
attr source packetDropped
attr title "packet drops, count"
scalar FloodingNetwork.host[39].wlan[0].mac packetDrop:sum(packetBytes) 0
attr interpolationmode none
attr source packetDropped
attr title "packet drops, sum(packetBytes)"
scalar FloodingNetwork.host[39].wlan[0].mac packetDropIncorrectlyReceived:count 0
attr interpolationmode none
attr source packetDropReasonIsIncorrectlyReceived(packetDropped)
attr title "packet drops: incorrectly received, count"
scalar FloodingNetwork.host[39].wlan[0].mac packetDropIncorrectlyReceived:sum(packetBytes) 0
attr interpolationmode none
attr source packetDropReasonIsIncorrectlyReceived(packetDropped)
attr title "packet drops: incorrectly received, sum(packetBytes)"
scalar FloodingNetwork.host[39].wlan[0].mac packetDropNotAddressedToUs:count 0
attr interpolationmode none
attr source packetDropReasonIsNotAddressedToUs(packetDropped)
attr title "packet drops: not addressed to us, count"
scalar FloodingNetwork.host[39].wlan[0].mac packetDropNotAddressedToUs:sum(packetBytes) 0
attr interpolationmode none
attr source packetDropReasonIsNotAddressedToUs(packetDropped)
attr title "packet drops: not addressed to us, sum(packetBytes)"
scalar FloodingNetwork.host[39].wlan[0].mac packetDropQueueOverflow:count 0
attr interpolationmode none
attr source packetDropReasonIsQueueOverflow(packetDropped)
attr title "packet drops: queue overflow, count"
scalar FloodingNetwork.host[39].wlan[0].mac packetDropQueueOverflow:sum(packetBytes) 0
attr interpolationmode none
attr source packetDropReasonIsQueueOverflow(packetDropped)
attr title "packet drops: queue overflow, sum(packetBytes)"
scalar FloodingNetwork.host[39].wlan[0].mac packetDropRetryLimitReached:count 0
attr interpolationmode none
attr source packetDropReasonIsRetryLimitReached(packetDropped)
attr title "packet drops: retry limit reached, count"
scalar FloodingNetwork.host[39].wlan[0].mac packetDropRetryLimitReached:sum(packetBytes) 0
attr interpolationmode none
attr source packetDropReasonIsRetryLimitReached(packetDropped)
attr title "packet drops: retry limit reached, sum(packetBytes)"
scalar FloodingNetwork.host[39].wlan[0].mac packetDropDuplicateDetected:count 0
attr interpolationmode none
attr source packetDropReasonIsDuplicateDetected(packetDropped)
attr title "packet drops: duplicate detected, count"
scalar FloodingNetwork.host[39].wlan[0].mac packetDropDuplicateDetected:sum(packetBytes) 0
attr interpolationmode none
attr source packetDropReasonIsDuplicateDetected(packetDropped)
attr title "packet drops: duplicate detected, sum(packetBytes)"
scalar FloodingNetwork.host[39].wlan[0].mac packetDropOther:count 0
attr interpolationmode none
attr source packetDropReasonIsOther(packetDropped)
attr title "packet drops: other, count"
scalar FloodingNetwork.host[39].wlan[0].mac packetDropOther:sum(packetBytes) 0
attr interpolationmode none
attr source packetDropReasonIsOther(packetDropped)
attr title "packet drops: other, sum(packetBytes)"
scalar FloodingNetwork.host[39].wlan[0].mac linkBroken:count 0
attr interpolationmode none
attr title "link breaks, count"
statistic FloodingNetwork.host[39].wlan[0].radio radioChannel:histogram
field count 1
field mean 0
field stddev -nan
field min 0
field max 0
field sum 0
field sqrsum 0
attr interpolationmode sample-hold
attr source radioChannelChanged
attr title "Radio channel, histogram"
bin	-inf	0
bin	-0.5	0
bin	-0.48	0
bin	-0.46	0
bin	-0.44	0
bin	-0.42	0
bin	-0.4	0
bin	-0.38	0
bin	-0.36	0
bin	-0.34	0
bin	-0.32	0
bin	-0.3	0
bin	-0.28	0
bin	-0.26	0
bin	-0.24	0
bin	-0.22	0
bin	-0.2	0
bin	-0.18	0
bin	-0.16	0
bin	-0.14	0
bin	-0.12	0
bin	-0.1	0
bin	-0.08	0
bin	-0.06	0
bin	-0.04	0
bin	-0.02	0
bin	0	1
bin	0.02	0
bin	0.04	0
bin	0.06	0
bin	0.08	0
bin	0.1	0
bin	0.12	0
bin	0.14	0
bin	0.16	0
bin	0.18	0
bin	0.2	0
bin	0.22	0
bin	0.24	0
bin	0.26	0
bin	0.28	0
bin	0.3	0
bin	0.32	0
bin	0.34	0
bin	0.36	0
bin	0.38	0
bin	0.4	0
bin	0.42	0
bin	0.44	0
bin	0.46	0
bin	0.48	0
bin	0.5	0
scalar FloodingNetwork.host[39].wlan[0].radio radioMode:count 6
attr interpolationmode sample-hold
attr source radioModeChanged
attr title "Radio mode, count"
scalar FloodingNetwork.host[39].wlan[0].radio receptionState:count 6
attr interpolationmode sample-hold
attr source receptionStateChanged
attr title "Radio reception state, count"
scalar FloodingNetwork.host[39].wlan[0].radio transmissionState:count 6
attr interpolationmode sample-hold
attr source transmissionStateChanged
attr title "Radio transmission state, count"
statistic FloodingNetwork.host[39].wlan[0].radio minSnir:histogram
field count 1
field mean 8.1592337928001
field stddev -nan
field min 8.1592337928001
field max 8.1592337928001
field sum 8.1592337928001
field sqrsum 66.573096085571
attr source minimumSnir(packetSentToUpper)
attr title "Min SNIR, histogram"
bin	-inf	0
bin	7.64	0
bin	7.66	0
bin	7.68	0
bin	7.7	0
bin	7.72	0
bin	7.74	0
bin	7.76	0
bin	7.78	0
bin	7.8	0
bin	7.82	0
bin	7.84	0
bin	7.86	0
bin	7.88	0
bin	7.9	0
bin	7.92	0
bin	7.94	0
bin	7.96	0
bin	7.98	0
bin	8	0
bin	8.02	0
bin	8.04	0
bin	8.06	0
bin	8.08	0
bin	8.1	0
bin	8.12	0
bin	8.14	1
bin	8.16	0
bin	8.18	0
bin	8.2	0
bin	8.22	0
bin	8.24	0
bin	8.26	0
bin	8.28	0
bin	8.3	0
bin	8.32	0
bin	8.34	0
bin	8.36	0
bin	8.38	0
bin	8.4	0
bin	8.42	0
bin	8.44	0
bin	8.46	0
bin	8.48	0
bin	8.5	0
bin	8.52	0
bin	8.54	0
bin	8.56	0
bin	8.58	0
bin	8.6	0
bin	8.62	0
bin	8.64	0
bin	8.66	0
statistic FloodingNetwork.host[39].wlan[0].radio packetErrorRate:histogram
field count 1
field mean 3.7319543452541e-05
field stddev -nan
field min 3.7319543452541e-05
field max 3.7319543452541e-05
field sum 3.7319543452541e-05
field sqrsum 1.3927483235061e-09
attr source packetErrorRate(packetSentToUpper)
attr title "Packet error rate, histogram"
bin	-inf	0
bin	0	1
bin	0.01	0
bin	0.02	0
bin	0.03	0
bin	0.04	0
bin	0.05	0
bin	0.06	0
bin	0.07	0
bin	0.08	0
bin	0.09	0
bin	0.1	0
bin	0.11	0
bin	0.12	0
bin	0.13	0
bin	0.14	0
bin	0.15	0
bin	0.16	0
bin	0.17	0
bin	0.18	0
bin	0.19	0
bin	0.2	0
bin	0.21	0
bin	0.22	0
bin	0.23	0
bin	0.24	0
bin	0.25	0
bin	0.26	0
bin	0.27	0
bin	0.28	0
bin	0.29	0
bin	0.3	0
bin	0.31	0
bin	0.32	0
bin	0.33	0
bin	0.34	0
bin	0.35	0
bin	0.36	0
bin	0.37	0
bin	0.38	0
bin	0.39	0
bin	0.4	0
bin	0.41	0
bin	0.42	0
bin	0.43	0
bin	0.44	0
bin	0.45	0
bin	0.46	0
bin	0.47	0
bin	0.48	0
bin	0.49	0
bin	0.5	0
bin	0.51	0
statistic FloodingNetwork.host[39].wlan[0].radio bitErrorRate:histogram
field count 0
field mean -nan
field stddev -nan
field min -nan
field max -nan
field sum 0
field sqrsum 0
attr source bitErrorRate(packetSentToUpper)
attr title "Bit error rate, histogram"
bin	-inf	0
bin	0	0
bin	1	0
statistic FloodingNetwork.host[39].wlan[0].radio symbolErrorRate:histogram
field count 0
field mean -nan
field stddev -nan
field min -nan
field max -nan
field sum 0
field sqrsum 0
attr source symbolErrorRate(packetSentToUpper)
attr title "Symbol error rate, histogram"
bin	-inf	0
bin	0	0
bin	1	0
scalar FloodingNetwork.host[39].generic.np nbDataPacketsReceived 0
scalar FloodingNetwork.host[39].generic.np nbDataPacketsSent 1
scalar FloodingNetwork.host[39].generic.np nbDataPacketsForwarded 1
scalar FloodingNetwork.host[39].generic.np meanNbHops 0
scalar FloodingNetwork.host[39].udp packetReceived:count 0
attr interpolationmode none
attr source packetReceived
attr title "packets received, count"
scalar FloodingNetwork.host[39].udp packetReceived:sum(packetBytes) 0
attr interpolationmode none
attr source packetReceived
attr title "packets received, sum(packetBytes)"
scalar FloodingNetwork.host[39].udp packetSent:count 0
attr interpolationmode none
attr source packetSent
attr title "packets sent, count"
scalar FloodingNetwork.host[39].udp packetSent:sum(packetBytes) 0
attr interpolationmode none
attr source packetSent
attr title "packets sent, sum(packetBytes)"
scalar FloodingNetwork.host[39].udp passedUpPk:count 0
attr interpolationmode none
attr source packetSentToUpper
attr title "packets passed up, count"
scalar FloodingNetwork.host[39].udp droppedPkWrongPort:count 0
attr interpolationmode none
attr source packetDropReasonIsNoPortFound(packetDropped)
attr title "packets dropped (wrong port), count"
scalar FloodingNetwork.host[39].udp droppedPkBadChecksum:count 0
attr interpolationmode none
attr source packetDropReasonIsIncorrectlyReceived(packetDropped)
attr title "packets dropped (checksum error), count"
scalar FloodingNetwork.host[39].app[0] "Pings sent" 1
scalar FloodingNetwork.host[39].app[0] "ping loss rate (%)" 100
scalar FloodingNetwork.host[39].app[0] "ping out-of-order rate (%)" 0
scalar FloodingNetwork.host[39].app[0] pingRxSeq:count 0
attr interpolationmode none
attr title "ping rx seq, count"
scalar FloodingNetwork.host[39].app[0] pingTxSeq:count 1
attr interpolationmode none
attr title "ping tx seq, count"
scalar FloodingNetwork.host[39].app[0] numOutOfOrderArrivals:last nan
attr interpolationmode none
attr title "ping out-of-order arrivals, last"
scalar FloodingNetwork.host[39].app[0] numLost:last nan
attr interpolationmode none
attr title "pings lost, last"
statistic FloodingNetwork.host[39].app[0] rtt:histogram
field count 0
field mean -nan
field stddev -nan
field min -nan
field max -nan
field sum 0
field sqrsum 0
attr interpolationmode none
attr title "ping round-trip time, histogram"
attr unit s
bin	-inf	0
bin	0	0
bin	1	0
scalar FloodingNetwork.host[39].app[1] packetReceived:count 0
attr interpolationmode none
attr source packetReceived
attr title "packets received, count"
scalar FloodingNetwork.host[39].app[1] packetReceived:sum(packetBytes) 0
attr interpolationmode none
attr source packetReceived
attr title "packets received, sum(packetBytes)"
statistic FloodingNetwork.host[39].app[1] endToEndDelay:histogram
field count 0
field mean -nan
field stddev -nan
field min -nan
field max -nan
field sum 0
field sqrsum 0
attr interpolationmode none
attr source dataAge(packetReceived)
attr title "end-to-end delay, histogram"
attr unit s
bin	-inf	0
bin	0	0
bin	1	0

