file 223274 1590696024                                          
version 2
run Mobility40Nodes2-0-20200528-22:00:17-15970
attr configname Mobility40Nodes2
attr datetime 20200528-22:00:17
attr experiment Mobility40Nodes2
attr inifile omnetpp.ini
attr iterationvars ""
attr iterationvarsf ""
attr measurement ""
attr network FloodingNetwork
attr processid 15970
attr repetition 0
attr replication #0
attr resultdir results
attr runnumber 0
attr seedset 0
param **.nodeCount 40
param **.host[30].app[0].srcAddr "\"host[30]\""
param **.host[31].app[0].srcAddr "\"host[31]\""
param **.host[32].app[0].srcAddr "\"host[32]\""
param **.host[33].app[0].srcAddr "\"host[33]\""
param **.host[34].app[0].srcAddr "\"host[34]\""
param **.host[35].app[0].srcAddr "\"host[35]\""
param **.host[36].app[0].srcAddr "\"host[36]\""
param **.host[37].app[0].srcAddr "\"host[37]\""
param **.host[38].app[0].srcAddr "\"host[38]\""
param **.host[39].app[0].srcAddr "\"host[39]\""
param **.host[0..8].app[0].sendInterval 0.01s
param **.host[10..39].app[0].sendInterval 0.01s
param **.host[0..8].app[0].destAddr "\"host[9]\""
param **.host[10..39].app[0].destAddr "\"host[9]\""
param *.host[*].mobility.typename "\"LinearMobility\""
param **.mobility.speed 40mps
param **.host[10].mobility.initialX 290m
param **.host[11].mobility.initialX 290m
param **.host[12].mobility.initialX 170m
param **.host[13].mobility.initialX 170m
param **.host[14].mobility.initialX 170m
param **.host[15].mobility.initialX 200m
param **.host[16].mobility.initialX 230m
param **.host[17].mobility.initialX 260m
param **.host[18].mobility.initialX 290m
param **.host[19].mobility.initialX 170m
param **.host[20].mobility.initialX 170m
param **.host[21].mobility.initialX 200m
param **.host[22].mobility.initialX 230m
param **.host[23].mobility.initialX 260m
param **.host[24].mobility.initialX 290m
param **.host[25].mobility.initialX 275m
param **.host[26].mobility.initialX 245m
param **.host[27].mobility.initialX 230m
param **.host[28].mobility.initialX 215m
param **.host[29].mobility.initialX 185m
param **.host[30].mobility.initialX 170m
param **.host[31].mobility.initialX 200m
param **.host[32].mobility.initialX 230m
param **.host[33].mobility.initialX 260m
param **.host[34].mobility.initialX 290m
param **.host[35].mobility.initialX 275m
param **.host[36].mobility.initialX 245m
param **.host[37].mobility.initialX 230m
param **.host[38].mobility.initialX 215m
param **.host[39].mobility.initialX 185m
param **.host[10].mobility.initialY 180m
param **.host[11].mobility.initialY 220m
param **.host[12].mobility.initialY 180m
param **.host[13].mobility.initialY 200m
param **.host[14].mobility.initialY 220m
param **.host[15].mobility.initialY 240m
param **.host[16].mobility.initialY 240m
param **.host[17].mobility.initialY 240m
param **.host[18].mobility.initialY 240m
param **.host[19].mobility.initialY 240m
param **.host[20].mobility.initialY 260m
param **.host[21].mobility.initialY 260m
param **.host[22].mobility.initialY 260m
param **.host[23].mobility.initialY 260m
param **.host[24].mobility.initialY 260m
param **.host[25].mobility.initialY 160m
param **.host[26].mobility.initialY 150m
param **.host[27].mobility.initialY 130m
param **.host[28].mobility.initialY 150m
param **.host[29].mobility.initialY 160m
param **.host[30].mobility.initialY 280m
param **.host[31].mobility.initialY 280m
param **.host[32].mobility.initialY 280m
param **.host[33].mobility.initialY 280m
param **.host[34].mobility.initialY 280m
param **.host[35].mobility.initialY 300m
param **.host[36].mobility.initialY 310m
param **.host[37].mobility.initialY 330m
param **.host[38].mobility.initialY 310m
param **.host[39].mobility.initialY 300m
param **.constraintAreaMaxX 480m
param **.constraintAreaMaxY 420m
param **.constraintAreaMaxZ 0m
param **.constraintAreaMinX 0m
param **.constraintAreaMinY 0m
param **.constraintAreaMinZ 0m
param **.host[*].app[1].localPort 9
param **.destPort 9
param **.numApps 2
param **.nodeCount 10
param **.hasGn true
param **.hasIpv4 false
param **.hasIpv6 false
param **.app[1].typename "\"UdpSink\""
param **.app[0].typename "\"PingApp\""
param **.app[*].networkProtocol "\"flooding\""
param **.host[0].app[0].srcAddr "\"host[0]\""
param **.host[1].app[0].srcAddr "\"host[1]\""
param **.host[2].app[0].srcAddr "\"host[2]\""
param **.host[3].app[0].srcAddr "\"host[3]\""
param **.host[4].app[0].srcAddr "\"host[4]\""
param **.host[5].app[0].srcAddr "\"host[5]\""
param **.host[6].app[0].srcAddr "\"host[6]\""
param **.host[7].app[0].srcAddr "\"host[7]\""
param **.host[8].app[0].srcAddr "\"host[8]\""
param **.host[9].app[0].srcAddr "\"host[9]\""
param **.host[0..8].app[0].sendInterval 1s
param **.host[0..8].app[0].destAddr "\"host[9]\""
param **.networkConfigurator.typename "\"Ipv4NetworkConfigurator\""
param **.generic.typename "\"SimpleNetworkLayer\""
param **.generic.np.typename "\"Flood\""
param **.generic.np.defaultTtl 5
param **.generic.np.headerLength 8B
param **.radioMedium.pathLoss.typename "\"LogNormalShadowing\""
param **.radioMedium.pathLoss.alpha 4.03
param **.radioMedium.pathLoss.sigma 4.98
param **.host[*].mobility.typename "\"StationaryMobility\""
param **.host[*].mobility.initFromDisplayString false
param **.host[*].mobility.initialZ 0m
param **.host[0].mobility.initialX 200m
param **.host[1].mobility.initialX 230m
param **.host[2].mobility.initialX 260m
param **.host[3].mobility.initialX 200m
param **.host[9].mobility.initialX 230m
param **.host[5].mobility.initialX 260m
param **.host[6].mobility.initialX 200m
param **.host[7].mobility.initialX 230m
param **.host[8].mobility.initialX 260m
param **.host[4].mobility.initialX 290m
param **.host[0].mobility.initialY 200m
param **.host[1].mobility.initialY 200m
param **.host[2].mobility.initialY 200m
param **.host[3].mobility.initialY 220m
param **.host[9].mobility.initialY 220m
param **.host[5].mobility.initialY 220m
param **.host[6].mobility.initialY 180m
param **.host[7].mobility.initialY 180m
param **.host[8].mobility.initialY 180m
param **.host[4].mobility.initialY 200m
param **.constraintAreaMaxX 500m
param **.constraintAreaMaxY 500m
param **.constraintAreaMaxZ 0m
param **.constraintAreaMinX 0m
param **.constraintAreaMinY 0m
param **.constraintAreaMinZ 0m
param **.wlan[*].bitrate 1Mbps
param **.wlan[*].radio.displayCommunicationRange true
param *.visualizer.mediumVisualizer.displaySignals true
param *.visualizer.physicalLinkVisualizer.displayLinks true
param *.visualizer.physicalLinkVisualizer.fadeOutTime 0.5s

vector 0 FloodingNetwork.host[0].wlan[0].radio radioMode:vector ETV
attr interpolationmode sample-hold
attr source radioModeChanged
attr title "Radio mode, vector"
vector 1 FloodingNetwork.host[0].wlan[0].radio radioChannel:vector ETV
attr interpolationmode sample-hold
attr source radioChannelChanged
attr title "Radio channel, vector"
vector 2 FloodingNetwork.host[1].wlan[0].radio radioMode:vector ETV
attr interpolationmode sample-hold
attr source radioModeChanged
attr title "Radio mode, vector"
vector 3 FloodingNetwork.host[1].wlan[0].radio radioChannel:vector ETV
attr interpolationmode sample-hold
attr source radioChannelChanged
attr title "Radio channel, vector"
vector 4 FloodingNetwork.host[2].wlan[0].radio radioMode:vector ETV
attr interpolationmode sample-hold
attr source radioModeChanged
attr title "Radio mode, vector"
vector 5 FloodingNetwork.host[2].wlan[0].radio radioChannel:vector ETV
attr interpolationmode sample-hold
attr source radioChannelChanged
attr title "Radio channel, vector"
vector 6 FloodingNetwork.host[3].wlan[0].radio radioMode:vector ETV
attr interpolationmode sample-hold
attr source radioModeChanged
attr title "Radio mode, vector"
vector 7 FloodingNetwork.host[3].wlan[0].radio radioChannel:vector ETV
attr interpolationmode sample-hold
attr source radioChannelChanged
attr title "Radio channel, vector"
vector 8 FloodingNetwork.host[4].wlan[0].radio radioMode:vector ETV
attr interpolationmode sample-hold
attr source radioModeChanged
attr title "Radio mode, vector"
vector 9 FloodingNetwork.host[4].wlan[0].radio radioChannel:vector ETV
attr interpolationmode sample-hold
attr source radioChannelChanged
attr title "Radio channel, vector"
vector 10 FloodingNetwork.host[5].wlan[0].radio radioMode:vector ETV
attr interpolationmode sample-hold
attr source radioModeChanged
attr title "Radio mode, vector"
vector 11 FloodingNetwork.host[5].wlan[0].radio radioChannel:vector ETV
attr interpolationmode sample-hold
attr source radioChannelChanged
attr title "Radio channel, vector"
vector 12 FloodingNetwork.host[6].wlan[0].radio radioMode:vector ETV
attr interpolationmode sample-hold
attr source radioModeChanged
attr title "Radio mode, vector"
vector 13 FloodingNetwork.host[6].wlan[0].radio radioChannel:vector ETV
attr interpolationmode sample-hold
attr source radioChannelChanged
attr title "Radio channel, vector"
vector 14 FloodingNetwork.host[7].wlan[0].radio radioMode:vector ETV
attr interpolationmode sample-hold
attr source radioModeChanged
attr title "Radio mode, vector"
vector 15 FloodingNetwork.host[7].wlan[0].radio radioChannel:vector ETV
attr interpolationmode sample-hold
attr source radioChannelChanged
attr title "Radio channel, vector"
vector 16 FloodingNetwork.host[8].wlan[0].radio radioMode:vector ETV
attr interpolationmode sample-hold
attr source radioModeChanged
attr title "Radio mode, vector"
vector 17 FloodingNetwork.host[8].wlan[0].radio radioChannel:vector ETV
attr interpolationmode sample-hold
attr source radioChannelChanged
attr title "Radio channel, vector"
vector 18 FloodingNetwork.host[9].wlan[0].radio radioMode:vector ETV
attr interpolationmode sample-hold
attr source radioModeChanged
attr title "Radio mode, vector"
vector 19 FloodingNetwork.host[9].wlan[0].radio radioChannel:vector ETV
attr interpolationmode sample-hold
attr source radioChannelChanged
attr title "Radio channel, vector"
vector 20 FloodingNetwork.host[10].wlan[0].radio radioMode:vector ETV
attr interpolationmode sample-hold
attr source radioModeChanged
attr title "Radio mode, vector"
vector 21 FloodingNetwork.host[10].wlan[0].radio radioChannel:vector ETV
attr interpolationmode sample-hold
attr source radioChannelChanged
attr title "Radio channel, vector"
vector 22 FloodingNetwork.host[11].wlan[0].radio radioMode:vector ETV
attr interpolationmode sample-hold
attr source radioModeChanged
attr title "Radio mode, vector"
vector 23 FloodingNetwork.host[11].wlan[0].radio radioChannel:vector ETV
attr interpolationmode sample-hold
attr source radioChannelChanged
attr title "Radio channel, vector"
vector 24 FloodingNetwork.host[12].wlan[0].radio radioMode:vector ETV
attr interpolationmode sample-hold
attr source radioModeChanged
attr title "Radio mode, vector"
vector 25 FloodingNetwork.host[12].wlan[0].radio radioChannel:vector ETV
attr interpolationmode sample-hold
attr source radioChannelChanged
attr title "Radio channel, vector"
vector 26 FloodingNetwork.host[13].wlan[0].radio radioMode:vector ETV
attr interpolationmode sample-hold
attr source radioModeChanged
attr title "Radio mode, vector"
vector 27 FloodingNetwork.host[13].wlan[0].radio radioChannel:vector ETV
attr interpolationmode sample-hold
attr source radioChannelChanged
attr title "Radio channel, vector"
vector 28 FloodingNetwork.host[14].wlan[0].radio radioMode:vector ETV
attr interpolationmode sample-hold
attr source radioModeChanged
attr title "Radio mode, vector"
vector 29 FloodingNetwork.host[14].wlan[0].radio radioChannel:vector ETV
attr interpolationmode sample-hold
attr source radioChannelChanged
attr title "Radio channel, vector"
vector 30 FloodingNetwork.host[15].wlan[0].radio radioMode:vector ETV
attr interpolationmode sample-hold
attr source radioModeChanged
attr title "Radio mode, vector"
vector 31 FloodingNetwork.host[15].wlan[0].radio radioChannel:vector ETV
attr interpolationmode sample-hold
attr source radioChannelChanged
attr title "Radio channel, vector"
vector 32 FloodingNetwork.host[16].wlan[0].radio radioMode:vector ETV
attr interpolationmode sample-hold
attr source radioModeChanged
attr title "Radio mode, vector"
vector 33 FloodingNetwork.host[16].wlan[0].radio radioChannel:vector ETV
attr interpolationmode sample-hold
attr source radioChannelChanged
attr title "Radio channel, vector"
vector 34 FloodingNetwork.host[17].wlan[0].radio radioMode:vector ETV
attr interpolationmode sample-hold
attr source radioModeChanged
attr title "Radio mode, vector"
vector 35 FloodingNetwork.host[17].wlan[0].radio radioChannel:vector ETV
attr interpolationmode sample-hold
attr source radioChannelChanged
attr title "Radio channel, vector"
vector 36 FloodingNetwork.host[18].wlan[0].radio radioMode:vector ETV
attr interpolationmode sample-hold
attr source radioModeChanged
attr title "Radio mode, vector"
vector 37 FloodingNetwork.host[18].wlan[0].radio radioChannel:vector ETV
attr interpolationmode sample-hold
attr source radioChannelChanged
attr title "Radio channel, vector"
vector 38 FloodingNetwork.host[19].wlan[0].radio radioMode:vector ETV
attr interpolationmode sample-hold
attr source radioModeChanged
attr title "Radio mode, vector"
vector 39 FloodingNetwork.host[19].wlan[0].radio radioChannel:vector ETV
attr interpolationmode sample-hold
attr source radioChannelChanged
attr title "Radio channel, vector"
vector 40 FloodingNetwork.host[20].wlan[0].radio radioMode:vector ETV
attr interpolationmode sample-hold
attr source radioModeChanged
attr title "Radio mode, vector"
vector 41 FloodingNetwork.host[20].wlan[0].radio radioChannel:vector ETV
attr interpolationmode sample-hold
attr source radioChannelChanged
attr title "Radio channel, vector"
vector 42 FloodingNetwork.host[21].wlan[0].radio radioMode:vector ETV
attr interpolationmode sample-hold
attr source radioModeChanged
attr title "Radio mode, vector"
vector 43 FloodingNetwork.host[21].wlan[0].radio radioChannel:vector ETV
attr interpolationmode sample-hold
attr source radioChannelChanged
attr title "Radio channel, vector"
vector 44 FloodingNetwork.host[22].wlan[0].radio radioMode:vector ETV
attr interpolationmode sample-hold
attr source radioModeChanged
attr title "Radio mode, vector"
vector 45 FloodingNetwork.host[22].wlan[0].radio radioChannel:vector ETV
attr interpolationmode sample-hold
attr source radioChannelChanged
attr title "Radio channel, vector"
vector 46 FloodingNetwork.host[23].wlan[0].radio radioMode:vector ETV
attr interpolationmode sample-hold
attr source radioModeChanged
attr title "Radio mode, vector"
vector 47 FloodingNetwork.host[23].wlan[0].radio radioChannel:vector ETV
attr interpolationmode sample-hold
attr source radioChannelChanged
attr title "Radio channel, vector"
vector 48 FloodingNetwork.host[24].wlan[0].radio radioMode:vector ETV
attr interpolationmode sample-hold
attr source radioModeChanged
attr title "Radio mode, vector"
vector 49 FloodingNetwork.host[24].wlan[0].radio radioChannel:vector ETV
attr interpolationmode sample-hold
attr source radioChannelChanged
attr title "Radio channel, vector"
vector 50 FloodingNetwork.host[25].wlan[0].radio radioMode:vector ETV
attr interpolationmode sample-hold
attr source radioModeChanged
attr title "Radio mode, vector"
vector 51 FloodingNetwork.host[25].wlan[0].radio radioChannel:vector ETV
attr interpolationmode sample-hold
attr source radioChannelChanged
attr title "Radio channel, vector"
vector 52 FloodingNetwork.host[26].wlan[0].radio radioMode:vector ETV
attr interpolationmode sample-hold
attr source radioModeChanged
attr title "Radio mode, vector"
vector 53 FloodingNetwork.host[26].wlan[0].radio radioChannel:vector ETV
attr interpolationmode sample-hold
attr source radioChannelChanged
attr title "Radio channel, vector"
vector 54 FloodingNetwork.host[27].wlan[0].radio radioMode:vector ETV
attr interpolationmode sample-hold
attr source radioModeChanged
attr title "Radio mode, vector"
vector 55 FloodingNetwork.host[27].wlan[0].radio radioChannel:vector ETV
attr interpolationmode sample-hold
attr source radioChannelChanged
attr title "Radio channel, vector"
vector 56 FloodingNetwork.host[28].wlan[0].radio radioMode:vector ETV
attr interpolationmode sample-hold
attr source radioModeChanged
attr title "Radio mode, vector"
vector 57 FloodingNetwork.host[28].wlan[0].radio radioChannel:vector ETV
attr interpolationmode sample-hold
attr source radioChannelChanged
attr title "Radio channel, vector"
vector 58 FloodingNetwork.host[29].wlan[0].radio radioMode:vector ETV
attr interpolationmode sample-hold
attr source radioModeChanged
attr title "Radio mode, vector"
vector 59 FloodingNetwork.host[29].wlan[0].radio radioChannel:vector ETV
attr interpolationmode sample-hold
attr source radioChannelChanged
attr title "Radio channel, vector"
vector 60 FloodingNetwork.host[30].wlan[0].radio radioMode:vector ETV
attr interpolationmode sample-hold
attr source radioModeChanged
attr title "Radio mode, vector"
vector 61 FloodingNetwork.host[30].wlan[0].radio radioChannel:vector ETV
attr interpolationmode sample-hold
attr source radioChannelChanged
attr title "Radio channel, vector"
vector 62 FloodingNetwork.host[31].wlan[0].radio radioMode:vector ETV
attr interpolationmode sample-hold
attr source radioModeChanged
attr title "Radio mode, vector"
vector 63 FloodingNetwork.host[31].wlan[0].radio radioChannel:vector ETV
attr interpolationmode sample-hold
attr source radioChannelChanged
attr title "Radio channel, vector"
vector 64 FloodingNetwork.host[32].wlan[0].radio radioMode:vector ETV
attr interpolationmode sample-hold
attr source radioModeChanged
attr title "Radio mode, vector"
vector 65 FloodingNetwork.host[32].wlan[0].radio radioChannel:vector ETV
attr interpolationmode sample-hold
attr source radioChannelChanged
attr title "Radio channel, vector"
vector 66 FloodingNetwork.host[33].wlan[0].radio radioMode:vector ETV
attr interpolationmode sample-hold
attr source radioModeChanged
attr title "Radio mode, vector"
vector 67 FloodingNetwork.host[33].wlan[0].radio radioChannel:vector ETV
attr interpolationmode sample-hold
attr source radioChannelChanged
attr title "Radio channel, vector"
vector 68 FloodingNetwork.host[34].wlan[0].radio radioMode:vector ETV
attr interpolationmode sample-hold
attr source radioModeChanged
attr title "Radio mode, vector"
vector 69 FloodingNetwork.host[34].wlan[0].radio radioChannel:vector ETV
attr interpolationmode sample-hold
attr source radioChannelChanged
attr title "Radio channel, vector"
vector 70 FloodingNetwork.host[35].wlan[0].radio radioMode:vector ETV
attr interpolationmode sample-hold
attr source radioModeChanged
attr title "Radio mode, vector"
vector 71 FloodingNetwork.host[35].wlan[0].radio radioChannel:vector ETV
attr interpolationmode sample-hold
attr source radioChannelChanged
attr title "Radio channel, vector"
vector 72 FloodingNetwork.host[36].wlan[0].radio radioMode:vector ETV
attr interpolationmode sample-hold
attr source radioModeChanged
attr title "Radio mode, vector"
vector 73 FloodingNetwork.host[36].wlan[0].radio radioChannel:vector ETV
attr interpolationmode sample-hold
attr source radioChannelChanged
attr title "Radio channel, vector"
vector 74 FloodingNetwork.host[37].wlan[0].radio radioMode:vector ETV
attr interpolationmode sample-hold
attr source radioModeChanged
attr title "Radio mode, vector"
vector 75 FloodingNetwork.host[37].wlan[0].radio radioChannel:vector ETV
attr interpolationmode sample-hold
attr source radioChannelChanged
attr title "Radio channel, vector"
vector 76 FloodingNetwork.host[38].wlan[0].radio radioMode:vector ETV
attr interpolationmode sample-hold
attr source radioModeChanged
attr title "Radio mode, vector"
vector 77 FloodingNetwork.host[38].wlan[0].radio radioChannel:vector ETV
attr interpolationmode sample-hold
attr source radioChannelChanged
attr title "Radio channel, vector"
vector 78 FloodingNetwork.host[39].wlan[0].radio radioMode:vector ETV
attr interpolationmode sample-hold
attr source radioModeChanged
attr title "Radio mode, vector"
vector 79 FloodingNetwork.host[39].wlan[0].radio radioChannel:vector ETV
attr interpolationmode sample-hold
attr source radioChannelChanged
attr title "Radio channel, vector"
vector 80 FloodingNetwork.host[0].wlan[0].radio receptionState:vector ETV
attr interpolationmode sample-hold
attr source receptionStateChanged
attr title "Radio reception state, vector"
vector 81 FloodingNetwork.host[1].wlan[0].radio receptionState:vector ETV
attr interpolationmode sample-hold
attr source receptionStateChanged
attr title "Radio reception state, vector"
vector 82 FloodingNetwork.host[2].wlan[0].radio receptionState:vector ETV
attr interpolationmode sample-hold
attr source receptionStateChanged
attr title "Radio reception state, vector"
vector 83 FloodingNetwork.host[3].wlan[0].radio receptionState:vector ETV
attr interpolationmode sample-hold
attr source receptionStateChanged
attr title "Radio reception state, vector"
vector 84 FloodingNetwork.host[4].wlan[0].radio receptionState:vector ETV
attr interpolationmode sample-hold
attr source receptionStateChanged
attr title "Radio reception state, vector"
vector 85 FloodingNetwork.host[5].wlan[0].radio receptionState:vector ETV
attr interpolationmode sample-hold
attr source receptionStateChanged
attr title "Radio reception state, vector"
vector 86 FloodingNetwork.host[6].wlan[0].radio receptionState:vector ETV
attr interpolationmode sample-hold
attr source receptionStateChanged
attr title "Radio reception state, vector"
vector 87 FloodingNetwork.host[7].wlan[0].radio receptionState:vector ETV
attr interpolationmode sample-hold
attr source receptionStateChanged
attr title "Radio reception state, vector"
vector 88 FloodingNetwork.host[8].wlan[0].radio receptionState:vector ETV
attr interpolationmode sample-hold
attr source receptionStateChanged
attr title "Radio reception state, vector"
vector 89 FloodingNetwork.host[9].wlan[0].radio receptionState:vector ETV
attr interpolationmode sample-hold
attr source receptionStateChanged
attr title "Radio reception state, vector"
vector 90 FloodingNetwork.host[10].wlan[0].radio receptionState:vector ETV
attr interpolationmode sample-hold
attr source receptionStateChanged
attr title "Radio reception state, vector"
vector 91 FloodingNetwork.host[11].wlan[0].radio receptionState:vector ETV
attr interpolationmode sample-hold
attr source receptionStateChanged
attr title "Radio reception state, vector"
vector 92 FloodingNetwork.host[12].wlan[0].radio receptionState:vector ETV
attr interpolationmode sample-hold
attr source receptionStateChanged
attr title "Radio reception state, vector"
vector 93 FloodingNetwork.host[13].wlan[0].radio receptionState:vector ETV
attr interpolationmode sample-hold
attr source receptionStateChanged
attr title "Radio reception state, vector"
vector 94 FloodingNetwork.host[14].wlan[0].radio receptionState:vector ETV
attr interpolationmode sample-hold
attr source receptionStateChanged
attr title "Radio reception state, vector"
vector 95 FloodingNetwork.host[15].wlan[0].radio receptionState:vector ETV
attr interpolationmode sample-hold
attr source receptionStateChanged
attr title "Radio reception state, vector"
vector 96 FloodingNetwork.host[16].wlan[0].radio receptionState:vector ETV
attr interpolationmode sample-hold
attr source receptionStateChanged
attr title "Radio reception state, vector"
vector 97 FloodingNetwork.host[17].wlan[0].radio receptionState:vector ETV
attr interpolationmode sample-hold
attr source receptionStateChanged
attr title "Radio reception state, vector"
vector 98 FloodingNetwork.host[18].wlan[0].radio receptionState:vector ETV
attr interpolationmode sample-hold
attr source receptionStateChanged
attr title "Radio reception state, vector"
vector 99 FloodingNetwork.host[19].wlan[0].radio receptionState:vector ETV
attr interpolationmode sample-hold
attr source receptionStateChanged
attr title "Radio reception state, vector"
vector 100 FloodingNetwork.host[20].wlan[0].radio receptionState:vector ETV
attr interpolationmode sample-hold
attr source receptionStateChanged
attr title "Radio reception state, vector"
vector 101 FloodingNetwork.host[21].wlan[0].radio receptionState:vector ETV
attr interpolationmode sample-hold
attr source receptionStateChanged
attr title "Radio reception state, vector"
vector 102 FloodingNetwork.host[22].wlan[0].radio receptionState:vector ETV
attr interpolationmode sample-hold
attr source receptionStateChanged
attr title "Radio reception state, vector"
vector 103 FloodingNetwork.host[23].wlan[0].radio receptionState:vector ETV
attr interpolationmode sample-hold
attr source receptionStateChanged
attr title "Radio reception state, vector"
vector 104 FloodingNetwork.host[24].wlan[0].radio receptionState:vector ETV
attr interpolationmode sample-hold
attr source receptionStateChanged
attr title "Radio reception state, vector"
vector 105 FloodingNetwork.host[25].wlan[0].radio receptionState:vector ETV
attr interpolationmode sample-hold
attr source receptionStateChanged
attr title "Radio reception state, vector"
vector 106 FloodingNetwork.host[26].wlan[0].radio receptionState:vector ETV
attr interpolationmode sample-hold
attr source receptionStateChanged
attr title "Radio reception state, vector"
vector 107 FloodingNetwork.host[27].wlan[0].radio receptionState:vector ETV
attr interpolationmode sample-hold
attr source receptionStateChanged
attr title "Radio reception state, vector"
vector 108 FloodingNetwork.host[28].wlan[0].radio receptionState:vector ETV
attr interpolationmode sample-hold
attr source receptionStateChanged
attr title "Radio reception state, vector"
vector 109 FloodingNetwork.host[29].wlan[0].radio receptionState:vector ETV
attr interpolationmode sample-hold
attr source receptionStateChanged
attr title "Radio reception state, vector"
vector 110 FloodingNetwork.host[30].wlan[0].radio receptionState:vector ETV
attr interpolationmode sample-hold
attr source receptionStateChanged
attr title "Radio reception state, vector"
vector 111 FloodingNetwork.host[31].wlan[0].radio receptionState:vector ETV
attr interpolationmode sample-hold
attr source receptionStateChanged
attr title "Radio reception state, vector"
vector 112 FloodingNetwork.host[32].wlan[0].radio receptionState:vector ETV
attr interpolationmode sample-hold
attr source receptionStateChanged
attr title "Radio reception state, vector"
vector 113 FloodingNetwork.host[33].wlan[0].radio receptionState:vector ETV
attr interpolationmode sample-hold
attr source receptionStateChanged
attr title "Radio reception state, vector"
vector 114 FloodingNetwork.host[34].wlan[0].radio receptionState:vector ETV
attr interpolationmode sample-hold
attr source receptionStateChanged
attr title "Radio reception state, vector"
vector 115 FloodingNetwork.host[35].wlan[0].radio receptionState:vector ETV
attr interpolationmode sample-hold
attr source receptionStateChanged
attr title "Radio reception state, vector"
vector 116 FloodingNetwork.host[36].wlan[0].radio receptionState:vector ETV
attr interpolationmode sample-hold
attr source receptionStateChanged
attr title "Radio reception state, vector"
vector 117 FloodingNetwork.host[37].wlan[0].radio receptionState:vector ETV
attr interpolationmode sample-hold
attr source receptionStateChanged
attr title "Radio reception state, vector"
vector 118 FloodingNetwork.host[38].wlan[0].radio receptionState:vector ETV
attr interpolationmode sample-hold
attr source receptionStateChanged
attr title "Radio reception state, vector"
vector 119 FloodingNetwork.host[39].wlan[0].radio receptionState:vector ETV
attr interpolationmode sample-hold
attr source receptionStateChanged
attr title "Radio reception state, vector"
vector 120 FloodingNetwork.host[0].wlan[0].mac.dcf.recoveryProcedure contentionWindowChanged:vector ETV
attr interpolationmode sample-hold
attr title "contention window, vector"
vector 121 FloodingNetwork.host[1].wlan[0].mac.dcf.recoveryProcedure contentionWindowChanged:vector ETV
attr interpolationmode sample-hold
attr title "contention window, vector"
vector 122 FloodingNetwork.host[2].wlan[0].mac.dcf.recoveryProcedure contentionWindowChanged:vector ETV
attr interpolationmode sample-hold
attr title "contention window, vector"
vector 123 FloodingNetwork.host[3].wlan[0].mac.dcf.recoveryProcedure contentionWindowChanged:vector ETV
attr interpolationmode sample-hold
attr title "contention window, vector"
vector 124 FloodingNetwork.host[4].wlan[0].mac.dcf.recoveryProcedure contentionWindowChanged:vector ETV
attr interpolationmode sample-hold
attr title "contention window, vector"
vector 125 FloodingNetwork.host[5].wlan[0].mac.dcf.recoveryProcedure contentionWindowChanged:vector ETV
attr interpolationmode sample-hold
attr title "contention window, vector"
vector 126 FloodingNetwork.host[6].wlan[0].mac.dcf.recoveryProcedure contentionWindowChanged:vector ETV
attr interpolationmode sample-hold
attr title "contention window, vector"
vector 127 FloodingNetwork.host[7].wlan[0].mac.dcf.recoveryProcedure contentionWindowChanged:vector ETV
attr interpolationmode sample-hold
attr title "contention window, vector"
vector 128 FloodingNetwork.host[8].wlan[0].mac.dcf.recoveryProcedure contentionWindowChanged:vector ETV
attr interpolationmode sample-hold
attr title "contention window, vector"
vector 129 FloodingNetwork.host[9].wlan[0].mac.dcf.recoveryProcedure contentionWindowChanged:vector ETV
attr interpolationmode sample-hold
attr title "contention window, vector"
vector 130 FloodingNetwork.host[10].wlan[0].mac.dcf.recoveryProcedure contentionWindowChanged:vector ETV
attr interpolationmode sample-hold
attr title "contention window, vector"
vector 131 FloodingNetwork.host[11].wlan[0].mac.dcf.recoveryProcedure contentionWindowChanged:vector ETV
attr interpolationmode sample-hold
attr title "contention window, vector"
vector 132 FloodingNetwork.host[12].wlan[0].mac.dcf.recoveryProcedure contentionWindowChanged:vector ETV
attr interpolationmode sample-hold
attr title "contention window, vector"
vector 133 FloodingNetwork.host[13].wlan[0].mac.dcf.recoveryProcedure contentionWindowChanged:vector ETV
attr interpolationmode sample-hold
attr title "contention window, vector"
vector 134 FloodingNetwork.host[14].wlan[0].mac.dcf.recoveryProcedure contentionWindowChanged:vector ETV
attr interpolationmode sample-hold
attr title "contention window, vector"
vector 135 FloodingNetwork.host[15].wlan[0].mac.dcf.recoveryProcedure contentionWindowChanged:vector ETV
attr interpolationmode sample-hold
attr title "contention window, vector"
vector 136 FloodingNetwork.host[16].wlan[0].mac.dcf.recoveryProcedure contentionWindowChanged:vector ETV
attr interpolationmode sample-hold
attr title "contention window, vector"
vector 137 FloodingNetwork.host[17].wlan[0].mac.dcf.recoveryProcedure contentionWindowChanged:vector ETV
attr interpolationmode sample-hold
attr title "contention window, vector"
vector 138 FloodingNetwork.host[18].wlan[0].mac.dcf.recoveryProcedure contentionWindowChanged:vector ETV
attr interpolationmode sample-hold
attr title "contention window, vector"
vector 139 FloodingNetwork.host[19].wlan[0].mac.dcf.recoveryProcedure contentionWindowChanged:vector ETV
attr interpolationmode sample-hold
attr title "contention window, vector"
vector 140 FloodingNetwork.host[20].wlan[0].mac.dcf.recoveryProcedure contentionWindowChanged:vector ETV
attr interpolationmode sample-hold
attr title "contention window, vector"
vector 141 FloodingNetwork.host[21].wlan[0].mac.dcf.recoveryProcedure contentionWindowChanged:vector ETV
attr interpolationmode sample-hold
attr title "contention window, vector"
vector 142 FloodingNetwork.host[22].wlan[0].mac.dcf.recoveryProcedure contentionWindowChanged:vector ETV
attr interpolationmode sample-hold
attr title "contention window, vector"
vector 143 FloodingNetwork.host[23].wlan[0].mac.dcf.recoveryProcedure contentionWindowChanged:vector ETV
attr interpolationmode sample-hold
attr title "contention window, vector"
vector 144 FloodingNetwork.host[24].wlan[0].mac.dcf.recoveryProcedure contentionWindowChanged:vector ETV
attr interpolationmode sample-hold
attr title "contention window, vector"
vector 145 FloodingNetwork.host[25].wlan[0].mac.dcf.recoveryProcedure contentionWindowChanged:vector ETV
attr interpolationmode sample-hold
attr title "contention window, vector"
vector 146 FloodingNetwork.host[26].wlan[0].mac.dcf.recoveryProcedure contentionWindowChanged:vector ETV
attr interpolationmode sample-hold
attr title "contention window, vector"
vector 147 FloodingNetwork.host[27].wlan[0].mac.dcf.recoveryProcedure contentionWindowChanged:vector ETV
attr interpolationmode sample-hold
attr title "contention window, vector"
vector 148 FloodingNetwork.host[28].wlan[0].mac.dcf.recoveryProcedure contentionWindowChanged:vector ETV
attr interpolationmode sample-hold
attr title "contention window, vector"
vector 149 FloodingNetwork.host[29].wlan[0].mac.dcf.recoveryProcedure contentionWindowChanged:vector ETV
attr interpolationmode sample-hold
attr title "contention window, vector"
vector 150 FloodingNetwork.host[30].wlan[0].mac.dcf.recoveryProcedure contentionWindowChanged:vector ETV
attr interpolationmode sample-hold
attr title "contention window, vector"
vector 151 FloodingNetwork.host[31].wlan[0].mac.dcf.recoveryProcedure contentionWindowChanged:vector ETV
attr interpolationmode sample-hold
attr title "contention window, vector"
vector 152 FloodingNetwork.host[32].wlan[0].mac.dcf.recoveryProcedure contentionWindowChanged:vector ETV
attr interpolationmode sample-hold
attr title "contention window, vector"
vector 153 FloodingNetwork.host[33].wlan[0].mac.dcf.recoveryProcedure contentionWindowChanged:vector ETV
attr interpolationmode sample-hold
attr title "contention window, vector"
vector 154 FloodingNetwork.host[34].wlan[0].mac.dcf.recoveryProcedure contentionWindowChanged:vector ETV
attr interpolationmode sample-hold
attr title "contention window, vector"
vector 155 FloodingNetwork.host[35].wlan[0].mac.dcf.recoveryProcedure contentionWindowChanged:vector ETV
attr interpolationmode sample-hold
attr title "contention window, vector"
vector 156 FloodingNetwork.host[36].wlan[0].mac.dcf.recoveryProcedure contentionWindowChanged:vector ETV
attr interpolationmode sample-hold
attr title "contention window, vector"
vector 157 FloodingNetwork.host[37].wlan[0].mac.dcf.recoveryProcedure contentionWindowChanged:vector ETV
attr interpolationmode sample-hold
attr title "contention window, vector"
vector 158 FloodingNetwork.host[38].wlan[0].mac.dcf.recoveryProcedure contentionWindowChanged:vector ETV
attr interpolationmode sample-hold
attr title "contention window, vector"
vector 159 FloodingNetwork.host[39].wlan[0].mac.dcf.recoveryProcedure contentionWindowChanged:vector ETV
attr interpolationmode sample-hold
attr title "contention window, vector"
vector 160 FloodingNetwork.host[7].app[0] pingTxSeq:vector ETV
attr interpolationmode none
attr title "ping tx seq, vector"
vector 161 FloodingNetwork.host[7].wlan[0].mac packetReceivedFromUpper:vector(packetBytes) ETV
attr interpolationmode none
attr title "packets received from upper layer, vector(packetBytes)"
vector 162 FloodingNetwork.host[7].wlan[0].mac.dcf.channelAccess.pendingQueue packetPushed:vector(packetBytes) ETV
attr interpolationmode none
attr title "packet pushed, vector(packetBytes)"
vector 163 FloodingNetwork.host[7].wlan[0].mac.dcf.channelAccess.pendingQueue queueLength:vector ETV
attr interpolationmode sample-hold
attr source "count(packetPushed) - count(packetPopped) - count(packetRemoved) - count(packetDropped)"
attr title "queue length, vector"
vector 164 FloodingNetwork.host[7].wlan[0].mac.dcf.channelAccess.contention backoffPeriodGenerated:vector ETV
attr interpolationmode none
attr title "backoff periods, vector"
vector 165 FloodingNetwork.host[7].wlan[0].mac.dcf.channelAccess.contention backoffActive:vector ETV
attr interpolationmode sample-hold
attr source count(backoffStarted)-count(backoffStopped)
attr title "backoff active, vector"
vector 166 FloodingNetwork.host[7].wlan[0].mac.dcf.channelAccess.pendingQueue packetPopped:vector(packetBytes) ETV
attr interpolationmode none
attr title "packet popped, vector(packetBytes)"
vector 167 FloodingNetwork.host[7].wlan[0].mac.dcf.channelAccess.pendingQueue queueingTime:vector ETV
attr interpolationmode none
attr source queueingTime(packetPopped)
attr title "queueing times, vector"
attr unit s
vector 168 FloodingNetwork.host[7].wlan[0].mac.dcf.channelAccess.inProgressFrames queueLength:vector ETV
attr interpolationmode sample-hold
attr source "count(packetEnqueued) - count(packetDequeued)"
attr title "queue length, vector"
vector 169 FloodingNetwork.host[7].wlan[0].mac.dcf datarateSelected:vector ETV
attr interpolationmode none
attr title "datarates selected, vector"
vector 170 FloodingNetwork.host[7].wlan[0].mac packetSentToLower:vector(packetBytes) ETV
attr interpolationmode none
attr title "packets sent to lower layer, vector(packetBytes)"
vector 171 FloodingNetwork.host[7].wlan[0].mac.dcf frameSequenceActive:vector ETV
attr interpolationmode sample-hold
attr source count(frameSequenceStarted)-count(frameSequenceFinished)
attr title "frame sequence active, vector"
vector 172 FloodingNetwork.host[7].wlan[0].radio transmissionState:vector ETV
attr interpolationmode sample-hold
attr source transmissionStateChanged
attr title "Radio transmission state, vector"
vector 173 FloodingNetwork.host[28].app[0] pingTxSeq:vector ETV
attr interpolationmode none
attr title "ping tx seq, vector"
vector 174 FloodingNetwork.host[28].wlan[0].mac packetReceivedFromUpper:vector(packetBytes) ETV
attr interpolationmode none
attr title "packets received from upper layer, vector(packetBytes)"
vector 175 FloodingNetwork.host[28].wlan[0].mac.dcf.channelAccess.pendingQueue packetPushed:vector(packetBytes) ETV
attr interpolationmode none
attr title "packet pushed, vector(packetBytes)"
vector 176 FloodingNetwork.host[28].wlan[0].mac.dcf.channelAccess.pendingQueue queueLength:vector ETV
attr interpolationmode sample-hold
attr source "count(packetPushed) - count(packetPopped) - count(packetRemoved) - count(packetDropped)"
attr title "queue length, vector"
vector 177 FloodingNetwork.host[28].wlan[0].mac.dcf.channelAccess.contention backoffPeriodGenerated:vector ETV
attr interpolationmode none
attr title "backoff periods, vector"
vector 178 FloodingNetwork.host[28].wlan[0].mac.dcf.channelAccess.contention backoffActive:vector ETV
attr interpolationmode sample-hold
attr source count(backoffStarted)-count(backoffStopped)
attr title "backoff active, vector"
vector 179 FloodingNetwork.host[28].wlan[0].mac.dcf.channelAccess.pendingQueue packetPopped:vector(packetBytes) ETV
attr interpolationmode none
attr title "packet popped, vector(packetBytes)"
vector 180 FloodingNetwork.host[28].wlan[0].mac.dcf.channelAccess.pendingQueue queueingTime:vector ETV
attr interpolationmode none
attr source queueingTime(packetPopped)
attr title "queueing times, vector"
attr unit s
vector 181 FloodingNetwork.host[28].wlan[0].mac.dcf.channelAccess.inProgressFrames queueLength:vector ETV
attr interpolationmode sample-hold
attr source "count(packetEnqueued) - count(packetDequeued)"
attr title "queue length, vector"
vector 182 FloodingNetwork.host[28].wlan[0].mac.dcf datarateSelected:vector ETV
attr interpolationmode none
attr title "datarates selected, vector"
vector 183 FloodingNetwork.host[28].wlan[0].mac packetSentToLower:vector(packetBytes) ETV
attr interpolationmode none
attr title "packets sent to lower layer, vector(packetBytes)"
vector 184 FloodingNetwork.host[28].wlan[0].mac.dcf frameSequenceActive:vector ETV
attr interpolationmode sample-hold
attr source count(frameSequenceStarted)-count(frameSequenceFinished)
attr title "frame sequence active, vector"
vector 185 FloodingNetwork.host[28].wlan[0].radio transmissionState:vector ETV
attr interpolationmode sample-hold
attr source transmissionStateChanged
attr title "Radio transmission state, vector"
vector 186 FloodingNetwork.host[33].app[0] pingTxSeq:vector ETV
attr interpolationmode none
attr title "ping tx seq, vector"
vector 187 FloodingNetwork.host[33].wlan[0].mac packetReceivedFromUpper:vector(packetBytes) ETV
attr interpolationmode none
attr title "packets received from upper layer, vector(packetBytes)"
vector 188 FloodingNetwork.host[33].wlan[0].mac.dcf.channelAccess.pendingQueue packetPushed:vector(packetBytes) ETV
attr interpolationmode none
attr title "packet pushed, vector(packetBytes)"
vector 189 FloodingNetwork.host[33].wlan[0].mac.dcf.channelAccess.pendingQueue queueLength:vector ETV
attr interpolationmode sample-hold
attr source "count(packetPushed) - count(packetPopped) - count(packetRemoved) - count(packetDropped)"
attr title "queue length, vector"
vector 190 FloodingNetwork.host[33].wlan[0].mac.dcf.channelAccess.contention backoffPeriodGenerated:vector ETV
attr interpolationmode none
attr title "backoff periods, vector"
vector 191 FloodingNetwork.host[33].wlan[0].mac.dcf.channelAccess.contention backoffActive:vector ETV
attr interpolationmode sample-hold
attr source count(backoffStarted)-count(backoffStopped)
attr title "backoff active, vector"
vector 192 FloodingNetwork.host[33].wlan[0].mac.dcf.channelAccess.pendingQueue packetPopped:vector(packetBytes) ETV
attr interpolationmode none
attr title "packet popped, vector(packetBytes)"
vector 193 FloodingNetwork.host[33].wlan[0].mac.dcf.channelAccess.pendingQueue queueingTime:vector ETV
attr interpolationmode none
attr source queueingTime(packetPopped)
attr title "queueing times, vector"
attr unit s
vector 194 FloodingNetwork.host[33].wlan[0].mac.dcf.channelAccess.inProgressFrames queueLength:vector ETV
attr interpolationmode sample-hold
attr source "count(packetEnqueued) - count(packetDequeued)"
attr title "queue length, vector"
vector 195 FloodingNetwork.host[33].wlan[0].mac.dcf datarateSelected:vector ETV
attr interpolationmode none
attr title "datarates selected, vector"
vector 196 FloodingNetwork.host[33].wlan[0].mac packetSentToLower:vector(packetBytes) ETV
attr interpolationmode none
attr title "packets sent to lower layer, vector(packetBytes)"
vector 197 FloodingNetwork.host[33].wlan[0].mac.dcf frameSequenceActive:vector ETV
attr interpolationmode sample-hold
attr source count(frameSequenceStarted)-count(frameSequenceFinished)
attr title "frame sequence active, vector"
vector 198 FloodingNetwork.host[33].wlan[0].radio transmissionState:vector ETV
attr interpolationmode sample-hold
attr source transmissionStateChanged
attr title "Radio transmission state, vector"
vector 199 FloodingNetwork.host[18].app[0] pingTxSeq:vector ETV
attr interpolationmode none
attr title "ping tx seq, vector"
vector 200 FloodingNetwork.host[18].wlan[0].mac packetReceivedFromUpper:vector(packetBytes) ETV
attr interpolationmode none
attr title "packets received from upper layer, vector(packetBytes)"
vector 201 FloodingNetwork.host[18].wlan[0].mac.dcf.channelAccess.pendingQueue packetPushed:vector(packetBytes) ETV
attr interpolationmode none
attr title "packet pushed, vector(packetBytes)"
vector 202 FloodingNetwork.host[18].wlan[0].mac.dcf.channelAccess.pendingQueue queueLength:vector ETV
attr interpolationmode sample-hold
attr source "count(packetPushed) - count(packetPopped) - count(packetRemoved) - count(packetDropped)"
attr title "queue length, vector"
vector 203 FloodingNetwork.host[18].wlan[0].mac.dcf.channelAccess.contention backoffPeriodGenerated:vector ETV
attr interpolationmode none
attr title "backoff periods, vector"
vector 204 FloodingNetwork.host[18].wlan[0].mac.dcf.channelAccess.contention backoffActive:vector ETV
attr interpolationmode sample-hold
attr source count(backoffStarted)-count(backoffStopped)
attr title "backoff active, vector"
vector 205 FloodingNetwork.host[18].wlan[0].mac.dcf.channelAccess.pendingQueue packetPopped:vector(packetBytes) ETV
attr interpolationmode none
attr title "packet popped, vector(packetBytes)"
vector 206 FloodingNetwork.host[18].wlan[0].mac.dcf.channelAccess.pendingQueue queueingTime:vector ETV
attr interpolationmode none
attr source queueingTime(packetPopped)
attr title "queueing times, vector"
attr unit s
vector 207 FloodingNetwork.host[18].wlan[0].mac.dcf.channelAccess.inProgressFrames queueLength:vector ETV
attr interpolationmode sample-hold
attr source "count(packetEnqueued) - count(packetDequeued)"
attr title "queue length, vector"
vector 208 FloodingNetwork.host[18].wlan[0].mac.dcf datarateSelected:vector ETV
attr interpolationmode none
attr title "datarates selected, vector"
vector 209 FloodingNetwork.host[18].wlan[0].mac packetSentToLower:vector(packetBytes) ETV
attr interpolationmode none
attr title "packets sent to lower layer, vector(packetBytes)"
vector 210 FloodingNetwork.host[18].wlan[0].mac.dcf frameSequenceActive:vector ETV
attr interpolationmode sample-hold
attr source count(frameSequenceStarted)-count(frameSequenceFinished)
attr title "frame sequence active, vector"
vector 211 FloodingNetwork.host[18].wlan[0].radio transmissionState:vector ETV
attr interpolationmode sample-hold
attr source transmissionStateChanged
attr title "Radio transmission state, vector"
vector 212 FloodingNetwork.host[35].app[0] pingTxSeq:vector ETV
attr interpolationmode none
attr title "ping tx seq, vector"
vector 213 FloodingNetwork.host[35].wlan[0].mac packetReceivedFromUpper:vector(packetBytes) ETV
attr interpolationmode none
attr title "packets received from upper layer, vector(packetBytes)"
vector 214 FloodingNetwork.host[35].wlan[0].mac.dcf.channelAccess.pendingQueue packetPushed:vector(packetBytes) ETV
attr interpolationmode none
attr title "packet pushed, vector(packetBytes)"
vector 215 FloodingNetwork.host[35].wlan[0].mac.dcf.channelAccess.pendingQueue queueLength:vector ETV
attr interpolationmode sample-hold
attr source "count(packetPushed) - count(packetPopped) - count(packetRemoved) - count(packetDropped)"
attr title "queue length, vector"
vector 216 FloodingNetwork.host[35].wlan[0].mac.dcf.channelAccess.contention backoffPeriodGenerated:vector ETV
attr interpolationmode none
attr title "backoff periods, vector"
vector 217 FloodingNetwork.host[7].wlan[0].mac.dcf packetSentToPeer:vector(packetBytes) ETV
attr interpolationmode none
attr title "packets sent, vector(packetBytes)"
vector 218 FloodingNetwork.host[7].wlan[0].mac.dcf packetSentToPeerMulticast:vector(packetBytes) ETV
attr interpolationmode none
attr source ieee80211Multicast(packetSentToPeer)
attr title "packets sent: multicast, vector(packetBytes)"
vector 219 FloodingNetwork.host[7].wlan[0].mac.dcf packetSentToPeerBroadcast:vector(packetBytes) ETV
attr interpolationmode none
attr source ieee80211Broadcast(packetSentToPeer)
attr title "packets sent: broadcast , vector(packetBytes)"
vector 220 FloodingNetwork.host[7].wlan[0].mac.dcf packetSentToPeerWithoutRetry:vector(packetBytes) ETV
attr interpolationmode none
attr source ieee80211NotRetry(packetSentToPeer)
attr title "packets sent: without retry, vector(packetBytes)"
vector 221 FloodingNetwork.host[7].wlan[0].mac.dcf.channelAccess.inProgressFrames queueingTime:vector ETV
attr interpolationmode none
attr source queueingTime(packetDequeued)
attr title "queueing times, vector"
vector 222 FloodingNetwork.host[1].wlan[0].mac packetReceivedFromLower:vector(packetBytes) ETV
attr interpolationmode none
attr title "packets received from lower layer, vector(packetBytes)"
vector 223 FloodingNetwork.host[1].wlan[0].mac.dcf packetReceivedFromPeer:vector(packetBytes) ETV
attr interpolationmode none
attr title "packets received, vector(packetBytes)"
vector 224 FloodingNetwork.host[1].wlan[0].mac.dcf packetReceivedFromPeerMulticast:vector(packetBytes) ETV
attr interpolationmode none
attr source ieee80211Multicast(packetReceivedFromPeer)
attr title "packets received: multicast, vector(packetBytes)"
vector 225 FloodingNetwork.host[1].wlan[0].mac.dcf packetReceivedFromPeerBroadcast:vector(packetBytes) ETV
attr interpolationmode none
attr source ieee80211Broadcast(packetReceivedFromPeer)
attr title "packets received: broadcast, vector(packetBytes)"
vector 226 FloodingNetwork.host[1].wlan[0].mac.dcf packetReceivedFromPeerWithoutRetry:vector(packetBytes) ETV
attr interpolationmode none
attr source ieee80211NotRetry(packetReceivedFromPeer)
attr title "packets received: without retry, vector(packetBytes)"
vector 227 FloodingNetwork.host[1].wlan[0].mac packetSentToUpper:vector(packetBytes) ETV
attr interpolationmode none
attr title "packets sent to upper layer, vector(packetBytes)"
vector 228 FloodingNetwork.host[1].wlan[0].mac packetReceivedFromUpper:vector(packetBytes) ETV
attr interpolationmode none
attr title "packets received from upper layer, vector(packetBytes)"
vector 229 FloodingNetwork.host[1].wlan[0].mac.dcf.channelAccess.pendingQueue packetPushed:vector(packetBytes) ETV
attr interpolationmode none
attr title "packet pushed, vector(packetBytes)"
vector 230 FloodingNetwork.host[1].wlan[0].mac.dcf.channelAccess.pendingQueue queueLength:vector ETV
attr interpolationmode sample-hold
attr source "count(packetPushed) - count(packetPopped) - count(packetRemoved) - count(packetDropped)"
attr title "queue length, vector"
vector 231 FloodingNetwork.host[1].wlan[0].mac.dcf.channelAccess.contention backoffPeriodGenerated:vector ETV
attr interpolationmode none
attr title "backoff periods, vector"
vector 232 FloodingNetwork.host[1].wlan[0].mac.dcf.channelAccess.contention backoffActive:vector ETV
attr interpolationmode sample-hold
attr source count(backoffStarted)-count(backoffStopped)
attr title "backoff active, vector"
vector 233 FloodingNetwork.host[8].wlan[0].mac packetReceivedFromLower:vector(packetBytes) ETV
attr interpolationmode none
attr title "packets received from lower layer, vector(packetBytes)"
vector 234 FloodingNetwork.host[8].wlan[0].mac.dcf packetReceivedFromPeer:vector(packetBytes) ETV
attr interpolationmode none
attr title "packets received, vector(packetBytes)"
vector 235 FloodingNetwork.host[8].wlan[0].mac.dcf packetReceivedFromPeerMulticast:vector(packetBytes) ETV
attr interpolationmode none
attr source ieee80211Multicast(packetReceivedFromPeer)
attr title "packets received: multicast, vector(packetBytes)"
vector 236 FloodingNetwork.host[8].wlan[0].mac.dcf packetReceivedFromPeerBroadcast:vector(packetBytes) ETV
attr interpolationmode none
attr source ieee80211Broadcast(packetReceivedFromPeer)
attr title "packets received: broadcast, vector(packetBytes)"
vector 237 FloodingNetwork.host[8].wlan[0].mac.dcf packetReceivedFromPeerWithoutRetry:vector(packetBytes) ETV
attr interpolationmode none
attr source ieee80211NotRetry(packetReceivedFromPeer)
attr title "packets received: without retry, vector(packetBytes)"
vector 238 FloodingNetwork.host[8].wlan[0].mac packetSentToUpper:vector(packetBytes) ETV
attr interpolationmode none
attr title "packets sent to upper layer, vector(packetBytes)"
vector 239 FloodingNetwork.host[8].wlan[0].mac packetReceivedFromUpper:vector(packetBytes) ETV
attr interpolationmode none
attr title "packets received from upper layer, vector(packetBytes)"
vector 240 FloodingNetwork.host[8].wlan[0].mac.dcf.channelAccess.pendingQueue packetPushed:vector(packetBytes) ETV
attr interpolationmode none
attr title "packet pushed, vector(packetBytes)"
vector 241 FloodingNetwork.host[8].wlan[0].mac.dcf.channelAccess.pendingQueue queueLength:vector ETV
attr interpolationmode sample-hold
attr source "count(packetPushed) - count(packetPopped) - count(packetRemoved) - count(packetDropped)"
attr title "queue length, vector"
vector 242 FloodingNetwork.host[8].wlan[0].mac.dcf.channelAccess.contention backoffPeriodGenerated:vector ETV
attr interpolationmode none
attr title "backoff periods, vector"
vector 243 FloodingNetwork.host[8].wlan[0].mac.dcf.channelAccess.contention backoffActive:vector ETV
attr interpolationmode sample-hold
attr source count(backoffStarted)-count(backoffStopped)
attr title "backoff active, vector"
vector 244 FloodingNetwork.host[26].wlan[0].mac packetReceivedFromLower:vector(packetBytes) ETV
attr interpolationmode none
attr title "packets received from lower layer, vector(packetBytes)"
vector 245 FloodingNetwork.host[26].wlan[0].mac.dcf packetReceivedFromPeer:vector(packetBytes) ETV
attr interpolationmode none
attr title "packets received, vector(packetBytes)"
vector 246 FloodingNetwork.host[26].wlan[0].mac.dcf packetReceivedFromPeerMulticast:vector(packetBytes) ETV
attr interpolationmode none
attr source ieee80211Multicast(packetReceivedFromPeer)
attr title "packets received: multicast, vector(packetBytes)"
vector 247 FloodingNetwork.host[26].wlan[0].mac.dcf packetReceivedFromPeerBroadcast:vector(packetBytes) ETV
attr interpolationmode none
attr source ieee80211Broadcast(packetReceivedFromPeer)
attr title "packets received: broadcast, vector(packetBytes)"
vector 248 FloodingNetwork.host[26].wlan[0].mac.dcf packetReceivedFromPeerWithoutRetry:vector(packetBytes) ETV
attr interpolationmode none
attr source ieee80211NotRetry(packetReceivedFromPeer)
attr title "packets received: without retry, vector(packetBytes)"
vector 249 FloodingNetwork.host[26].wlan[0].mac packetSentToUpper:vector(packetBytes) ETV
attr interpolationmode none
attr title "packets sent to upper layer, vector(packetBytes)"
vector 250 FloodingNetwork.host[26].wlan[0].mac packetReceivedFromUpper:vector(packetBytes) ETV
attr interpolationmode none
attr title "packets received from upper layer, vector(packetBytes)"
vector 251 FloodingNetwork.host[26].wlan[0].mac.dcf.channelAccess.pendingQueue packetPushed:vector(packetBytes) ETV
attr interpolationmode none
attr title "packet pushed, vector(packetBytes)"
vector 252 FloodingNetwork.host[26].wlan[0].mac.dcf.channelAccess.pendingQueue queueLength:vector ETV
attr interpolationmode sample-hold
attr source "count(packetPushed) - count(packetPopped) - count(packetRemoved) - count(packetDropped)"
attr title "queue length, vector"
vector 253 FloodingNetwork.host[26].wlan[0].mac.dcf.channelAccess.contention backoffPeriodGenerated:vector ETV
attr interpolationmode none
attr title "backoff periods, vector"
vector 254 FloodingNetwork.host[26].wlan[0].mac.dcf.channelAccess.contention backoffActive:vector ETV
attr interpolationmode sample-hold
attr source count(backoffStarted)-count(backoffStopped)
attr title "backoff active, vector"
vector 255 FloodingNetwork.host[26].wlan[0].mac.dcf.channelAccess.pendingQueue packetPopped:vector(packetBytes) ETV
attr interpolationmode none
attr title "packet popped, vector(packetBytes)"
vector 256 FloodingNetwork.host[26].wlan[0].mac.dcf.channelAccess.pendingQueue queueingTime:vector ETV
attr interpolationmode none
attr source queueingTime(packetPopped)
attr title "queueing times, vector"
attr unit s
vector 257 FloodingNetwork.host[26].wlan[0].mac.dcf.channelAccess.inProgressFrames queueLength:vector ETV
attr interpolationmode sample-hold
attr source "count(packetEnqueued) - count(packetDequeued)"
attr title "queue length, vector"
vector 258 FloodingNetwork.host[26].wlan[0].mac.dcf datarateSelected:vector ETV
attr interpolationmode none
attr title "datarates selected, vector"
vector 259 FloodingNetwork.host[26].wlan[0].mac packetSentToLower:vector(packetBytes) ETV
attr interpolationmode none
attr title "packets sent to lower layer, vector(packetBytes)"
vector 260 FloodingNetwork.host[26].wlan[0].mac.dcf frameSequenceActive:vector ETV
attr interpolationmode sample-hold
attr source count(frameSequenceStarted)-count(frameSequenceFinished)
attr title "frame sequence active, vector"
vector 261 FloodingNetwork.host[26].wlan[0].radio transmissionState:vector ETV
attr interpolationmode sample-hold
attr source transmissionStateChanged
attr title "Radio transmission state, vector"
vector 262 FloodingNetwork.host[30].app[0] pingTxSeq:vector ETV
attr interpolationmode none
attr title "ping tx seq, vector"
vector 263 FloodingNetwork.host[30].wlan[0].mac packetReceivedFromUpper:vector(packetBytes) ETV
attr interpolationmode none
attr title "packets received from upper layer, vector(packetBytes)"
vector 264 FloodingNetwork.host[30].wlan[0].mac.dcf.channelAccess.pendingQueue packetPushed:vector(packetBytes) ETV
attr interpolationmode none
attr title "packet pushed, vector(packetBytes)"
vector 265 FloodingNetwork.host[30].wlan[0].mac.dcf.channelAccess.pendingQueue queueLength:vector ETV
attr interpolationmode sample-hold
attr source "count(packetPushed) - count(packetPopped) - count(packetRemoved) - count(packetDropped)"
attr title "queue length, vector"
vector 266 FloodingNetwork.host[30].wlan[0].mac.dcf.channelAccess.contention backoffPeriodGenerated:vector ETV
attr interpolationmode none
attr title "backoff periods, vector"
vector 267 FloodingNetwork.host[30].wlan[0].mac.dcf.channelAccess.contention backoffActive:vector ETV
attr interpolationmode sample-hold
attr source count(backoffStarted)-count(backoffStopped)
attr title "backoff active, vector"
vector 268 FloodingNetwork.host[30].wlan[0].mac.dcf.channelAccess.pendingQueue packetPopped:vector(packetBytes) ETV
attr interpolationmode none
attr title "packet popped, vector(packetBytes)"
vector 269 FloodingNetwork.host[30].wlan[0].mac.dcf.channelAccess.pendingQueue queueingTime:vector ETV
attr interpolationmode none
attr source queueingTime(packetPopped)
attr title "queueing times, vector"
attr unit s
vector 270 FloodingNetwork.host[30].wlan[0].mac.dcf.channelAccess.inProgressFrames queueLength:vector ETV
attr interpolationmode sample-hold
attr source "count(packetEnqueued) - count(packetDequeued)"
attr title "queue length, vector"
vector 271 FloodingNetwork.host[30].wlan[0].mac.dcf datarateSelected:vector ETV
attr interpolationmode none
attr title "datarates selected, vector"
vector 272 FloodingNetwork.host[30].wlan[0].mac packetSentToLower:vector(packetBytes) ETV
attr interpolationmode none
attr title "packets sent to lower layer, vector(packetBytes)"
vector 273 FloodingNetwork.host[30].wlan[0].mac.dcf frameSequenceActive:vector ETV
attr interpolationmode sample-hold
attr source count(frameSequenceStarted)-count(frameSequenceFinished)
attr title "frame sequence active, vector"
vector 274 FloodingNetwork.host[30].wlan[0].radio transmissionState:vector ETV
attr interpolationmode sample-hold
attr source transmissionStateChanged
attr title "Radio transmission state, vector"
vector 275 FloodingNetwork.host[28].wlan[0].mac.dcf packetSentToPeer:vector(packetBytes) ETV
attr interpolationmode none
attr title "packets sent, vector(packetBytes)"
vector 276 FloodingNetwork.host[28].wlan[0].mac.dcf packetSentToPeerMulticast:vector(packetBytes) ETV
attr interpolationmode none
attr source ieee80211Multicast(packetSentToPeer)
attr title "packets sent: multicast, vector(packetBytes)"
vector 277 FloodingNetwork.host[28].wlan[0].mac.dcf packetSentToPeerBroadcast:vector(packetBytes) ETV
attr interpolationmode none
attr source ieee80211Broadcast(packetSentToPeer)
attr title "packets sent: broadcast , vector(packetBytes)"
vector 278 FloodingNetwork.host[28].wlan[0].mac.dcf packetSentToPeerWithoutRetry:vector(packetBytes) ETV
attr interpolationmode none
attr source ieee80211NotRetry(packetSentToPeer)
attr title "packets sent: without retry, vector(packetBytes)"
vector 279 FloodingNetwork.host[28].wlan[0].mac.dcf.channelAccess.inProgressFrames queueingTime:vector ETV
attr interpolationmode none
attr source queueingTime(packetDequeued)
attr title "queueing times, vector"
vector 280 FloodingNetwork.host[1].wlan[0].mac.dcf.channelAccess.pendingQueue packetPopped:vector(packetBytes) ETV
attr interpolationmode none
attr title "packet popped, vector(packetBytes)"
vector 281 FloodingNetwork.host[1].wlan[0].mac.dcf.channelAccess.pendingQueue queueingTime:vector ETV
attr interpolationmode none
attr source queueingTime(packetPopped)
attr title "queueing times, vector"
attr unit s
vector 282 FloodingNetwork.host[1].wlan[0].mac.dcf.channelAccess.inProgressFrames queueLength:vector ETV
attr interpolationmode sample-hold
attr source "count(packetEnqueued) - count(packetDequeued)"
attr title "queue length, vector"
vector 283 FloodingNetwork.host[1].wlan[0].mac.dcf datarateSelected:vector ETV
attr interpolationmode none
attr title "datarates selected, vector"
vector 284 FloodingNetwork.host[1].wlan[0].mac packetSentToLower:vector(packetBytes) ETV
attr interpolationmode none
attr title "packets sent to lower layer, vector(packetBytes)"
vector 285 FloodingNetwork.host[1].wlan[0].mac.dcf frameSequenceActive:vector ETV
attr interpolationmode sample-hold
attr source count(frameSequenceStarted)-count(frameSequenceFinished)
attr title "frame sequence active, vector"
vector 286 FloodingNetwork.host[1].wlan[0].radio transmissionState:vector ETV
attr interpolationmode sample-hold
attr source transmissionStateChanged
attr title "Radio transmission state, vector"
vector 287 FloodingNetwork.host[32].app[0] pingTxSeq:vector ETV
attr interpolationmode none
attr title "ping tx seq, vector"
vector 288 FloodingNetwork.host[32].wlan[0].mac packetReceivedFromUpper:vector(packetBytes) ETV
attr interpolationmode none
attr title "packets received from upper layer, vector(packetBytes)"
vector 289 FloodingNetwork.host[32].wlan[0].mac.dcf.channelAccess.pendingQueue packetPushed:vector(packetBytes) ETV
attr interpolationmode none
attr title "packet pushed, vector(packetBytes)"
vector 290 FloodingNetwork.host[32].wlan[0].mac.dcf.channelAccess.pendingQueue queueLength:vector ETV
attr interpolationmode sample-hold
attr source "count(packetPushed) - count(packetPopped) - count(packetRemoved) - count(packetDropped)"
attr title "queue length, vector"
vector 291 FloodingNetwork.host[32].wlan[0].mac.dcf.channelAccess.contention backoffPeriodGenerated:vector ETV
attr interpolationmode none
attr title "backoff periods, vector"
vector 292 FloodingNetwork.host[32].wlan[0].mac.dcf.channelAccess.contention backoffActive:vector ETV
attr interpolationmode sample-hold
attr source count(backoffStarted)-count(backoffStopped)
attr title "backoff active, vector"
vector 293 FloodingNetwork.host[32].wlan[0].mac.dcf.channelAccess.pendingQueue packetPopped:vector(packetBytes) ETV
attr interpolationmode none
attr title "packet popped, vector(packetBytes)"
vector 294 FloodingNetwork.host[32].wlan[0].mac.dcf.channelAccess.pendingQueue queueingTime:vector ETV
attr interpolationmode none
attr source queueingTime(packetPopped)
attr title "queueing times, vector"
attr unit s
vector 295 FloodingNetwork.host[32].wlan[0].mac.dcf.channelAccess.inProgressFrames queueLength:vector ETV
attr interpolationmode sample-hold
attr source "count(packetEnqueued) - count(packetDequeued)"
attr title "queue length, vector"
vector 296 FloodingNetwork.host[32].wlan[0].mac.dcf datarateSelected:vector ETV
attr interpolationmode none
attr title "datarates selected, vector"
vector 297 FloodingNetwork.host[32].wlan[0].mac packetSentToLower:vector(packetBytes) ETV
attr interpolationmode none
attr title "packets sent to lower layer, vector(packetBytes)"
vector 298 FloodingNetwork.host[32].wlan[0].mac.dcf frameSequenceActive:vector ETV
attr interpolationmode sample-hold
attr source count(frameSequenceStarted)-count(frameSequenceFinished)
attr title "frame sequence active, vector"
vector 299 FloodingNetwork.host[32].wlan[0].radio transmissionState:vector ETV
attr interpolationmode sample-hold
attr source transmissionStateChanged
attr title "Radio transmission state, vector"
vector 300 FloodingNetwork.host[36].app[0] pingTxSeq:vector ETV
attr interpolationmode none
attr title "ping tx seq, vector"
vector 301 FloodingNetwork.host[36].wlan[0].mac packetReceivedFromUpper:vector(packetBytes) ETV
attr interpolationmode none
attr title "packets received from upper layer, vector(packetBytes)"
vector 302 FloodingNetwork.host[36].wlan[0].mac.dcf.channelAccess.pendingQueue packetPushed:vector(packetBytes) ETV
attr interpolationmode none
attr title "packet pushed, vector(packetBytes)"
vector 303 FloodingNetwork.host[36].wlan[0].mac.dcf.channelAccess.pendingQueue queueLength:vector ETV
attr interpolationmode sample-hold
attr source "count(packetPushed) - count(packetPopped) - count(packetRemoved) - count(packetDropped)"
attr title "queue length, vector"
vector 304 FloodingNetwork.host[36].wlan[0].mac.dcf.channelAccess.contention backoffPeriodGenerated:vector ETV
attr interpolationmode none
attr title "backoff periods, vector"
vector 305 FloodingNetwork.host[8].wlan[0].mac.dcf.channelAccess.pendingQueue packetPopped:vector(packetBytes) ETV
attr interpolationmode none
attr title "packet popped, vector(packetBytes)"
vector 306 FloodingNetwork.host[8].wlan[0].mac.dcf.channelAccess.pendingQueue queueingTime:vector ETV
attr interpolationmode none
attr source queueingTime(packetPopped)
attr title "queueing times, vector"
attr unit s
vector 307 FloodingNetwork.host[8].wlan[0].mac.dcf.channelAccess.inProgressFrames queueLength:vector ETV
attr interpolationmode sample-hold
attr source "count(packetEnqueued) - count(packetDequeued)"
attr title "queue length, vector"
vector 308 FloodingNetwork.host[8].wlan[0].mac.dcf datarateSelected:vector ETV
attr interpolationmode none
attr title "datarates selected, vector"
vector 309 FloodingNetwork.host[8].wlan[0].mac packetSentToLower:vector(packetBytes) ETV
attr interpolationmode none
attr title "packets sent to lower layer, vector(packetBytes)"
vector 310 FloodingNetwork.host[8].wlan[0].mac.dcf frameSequenceActive:vector ETV
attr interpolationmode sample-hold
attr source count(frameSequenceStarted)-count(frameSequenceFinished)
attr title "frame sequence active, vector"
vector 311 FloodingNetwork.host[8].wlan[0].radio transmissionState:vector ETV
attr interpolationmode sample-hold
attr source transmissionStateChanged
attr title "Radio transmission state, vector"
vector 312 FloodingNetwork.host[33].wlan[0].mac.dcf packetSentToPeer:vector(packetBytes) ETV
attr interpolationmode none
attr title "packets sent, vector(packetBytes)"
vector 313 FloodingNetwork.host[33].wlan[0].mac.dcf packetSentToPeerMulticast:vector(packetBytes) ETV
attr interpolationmode none
attr source ieee80211Multicast(packetSentToPeer)
attr title "packets sent: multicast, vector(packetBytes)"
vector 314 FloodingNetwork.host[33].wlan[0].mac.dcf packetSentToPeerBroadcast:vector(packetBytes) ETV
attr interpolationmode none
attr source ieee80211Broadcast(packetSentToPeer)
attr title "packets sent: broadcast , vector(packetBytes)"
vector 315 FloodingNetwork.host[33].wlan[0].mac.dcf packetSentToPeerWithoutRetry:vector(packetBytes) ETV
attr interpolationmode none
attr source ieee80211NotRetry(packetSentToPeer)
attr title "packets sent: without retry, vector(packetBytes)"
vector 316 FloodingNetwork.host[33].wlan[0].mac.dcf.channelAccess.inProgressFrames queueingTime:vector ETV
attr interpolationmode none
attr source queueingTime(packetDequeued)
attr title "queueing times, vector"
vector 317 FloodingNetwork.host[23].wlan[0].mac packetReceivedFromLower:vector(packetBytes) ETV
attr interpolationmode none
attr title "packets received from lower layer, vector(packetBytes)"
vector 318 FloodingNetwork.host[23].wlan[0].mac.dcf packetReceivedFromPeer:vector(packetBytes) ETV
attr interpolationmode none
attr title "packets received, vector(packetBytes)"
vector 319 FloodingNetwork.host[23].wlan[0].mac.dcf packetReceivedFromPeerMulticast:vector(packetBytes) ETV
attr interpolationmode none
attr source ieee80211Multicast(packetReceivedFromPeer)
attr title "packets received: multicast, vector(packetBytes)"
vector 320 FloodingNetwork.host[23].wlan[0].mac.dcf packetReceivedFromPeerBroadcast:vector(packetBytes) ETV
attr interpolationmode none
attr source ieee80211Broadcast(packetReceivedFromPeer)
attr title "packets received: broadcast, vector(packetBytes)"
vector 321 FloodingNetwork.host[23].wlan[0].mac.dcf packetReceivedFromPeerWithoutRetry:vector(packetBytes) ETV
attr interpolationmode none
attr source ieee80211NotRetry(packetReceivedFromPeer)
attr title "packets received: without retry, vector(packetBytes)"
vector 322 FloodingNetwork.host[23].wlan[0].mac packetSentToUpper:vector(packetBytes) ETV
attr interpolationmode none
attr title "packets sent to upper layer, vector(packetBytes)"
vector 323 FloodingNetwork.host[23].wlan[0].mac packetReceivedFromUpper:vector(packetBytes) ETV
attr interpolationmode none
attr title "packets received from upper layer, vector(packetBytes)"
vector 324 FloodingNetwork.host[23].wlan[0].mac.dcf.channelAccess.pendingQueue packetPushed:vector(packetBytes) ETV
attr interpolationmode none
attr title "packet pushed, vector(packetBytes)"
vector 325 FloodingNetwork.host[23].wlan[0].mac.dcf.channelAccess.pendingQueue queueLength:vector ETV
attr interpolationmode sample-hold
attr source "count(packetPushed) - count(packetPopped) - count(packetRemoved) - count(packetDropped)"
attr title "queue length, vector"
vector 326 FloodingNetwork.host[23].wlan[0].mac.dcf.channelAccess.contention backoffPeriodGenerated:vector ETV
attr interpolationmode none
attr title "backoff periods, vector"
vector 327 FloodingNetwork.host[35].wlan[0].mac.dcf.channelAccess.contention backoffActive:vector ETV
attr interpolationmode sample-hold
attr source count(backoffStarted)-count(backoffStopped)
attr title "backoff active, vector"
vector 328 FloodingNetwork.host[35].wlan[0].mac packetReceivedFromLower:vector(packetBytes) ETV
attr interpolationmode none
attr title "packets received from lower layer, vector(packetBytes)"
vector 329 FloodingNetwork.host[35].wlan[0].mac.dcf packetReceivedFromPeer:vector(packetBytes) ETV
attr interpolationmode none
attr title "packets received, vector(packetBytes)"
vector 330 FloodingNetwork.host[35].wlan[0].mac.dcf packetReceivedFromPeerMulticast:vector(packetBytes) ETV
attr interpolationmode none
attr source ieee80211Multicast(packetReceivedFromPeer)
attr title "packets received: multicast, vector(packetBytes)"
vector 331 FloodingNetwork.host[35].wlan[0].mac.dcf packetReceivedFromPeerBroadcast:vector(packetBytes) ETV
attr interpolationmode none
attr source ieee80211Broadcast(packetReceivedFromPeer)
attr title "packets received: broadcast, vector(packetBytes)"
vector 332 FloodingNetwork.host[35].wlan[0].mac.dcf packetReceivedFromPeerWithoutRetry:vector(packetBytes) ETV
attr interpolationmode none
attr source ieee80211NotRetry(packetReceivedFromPeer)
attr title "packets received: without retry, vector(packetBytes)"
vector 333 FloodingNetwork.host[35].wlan[0].mac packetSentToUpper:vector(packetBytes) ETV
attr interpolationmode none
attr title "packets sent to upper layer, vector(packetBytes)"
vector 334 FloodingNetwork.host[34].wlan[0].mac packetReceivedFromLower:vector(packetBytes) ETV
attr interpolationmode none
attr title "packets received from lower layer, vector(packetBytes)"
vector 335 FloodingNetwork.host[34].wlan[0].mac.dcf packetReceivedFromPeer:vector(packetBytes) ETV
attr interpolationmode none
attr title "packets received, vector(packetBytes)"
vector 336 FloodingNetwork.host[34].wlan[0].mac.dcf packetReceivedFromPeerMulticast:vector(packetBytes) ETV
attr interpolationmode none
attr source ieee80211Multicast(packetReceivedFromPeer)
attr title "packets received: multicast, vector(packetBytes)"
vector 337 FloodingNetwork.host[34].wlan[0].mac.dcf packetReceivedFromPeerBroadcast:vector(packetBytes) ETV
attr interpolationmode none
attr source ieee80211Broadcast(packetReceivedFromPeer)
attr title "packets received: broadcast, vector(packetBytes)"
vector 338 FloodingNetwork.host[34].wlan[0].mac.dcf packetReceivedFromPeerWithoutRetry:vector(packetBytes) ETV
attr interpolationmode none
attr source ieee80211NotRetry(packetReceivedFromPeer)
attr title "packets received: without retry, vector(packetBytes)"
vector 339 FloodingNetwork.host[34].wlan[0].mac packetSentToUpper:vector(packetBytes) ETV
attr interpolationmode none
attr title "packets sent to upper layer, vector(packetBytes)"
vector 340 FloodingNetwork.host[34].wlan[0].mac packetReceivedFromUpper:vector(packetBytes) ETV
attr interpolationmode none
attr title "packets received from upper layer, vector(packetBytes)"
vector 341 FloodingNetwork.host[34].wlan[0].mac.dcf.channelAccess.pendingQueue packetPushed:vector(packetBytes) ETV
attr interpolationmode none
attr title "packet pushed, vector(packetBytes)"
vector 342 FloodingNetwork.host[34].wlan[0].mac.dcf.channelAccess.pendingQueue queueLength:vector ETV
attr interpolationmode sample-hold
attr source "count(packetPushed) - count(packetPopped) - count(packetRemoved) - count(packetDropped)"
attr title "queue length, vector"
vector 343 FloodingNetwork.host[34].wlan[0].mac.dcf.channelAccess.contention backoffPeriodGenerated:vector ETV
attr interpolationmode none
attr title "backoff periods, vector"
vector 344 FloodingNetwork.host[34].wlan[0].mac.dcf.channelAccess.contention backoffActive:vector ETV
attr interpolationmode sample-hold
attr source count(backoffStarted)-count(backoffStopped)
attr title "backoff active, vector"
vector 345 FloodingNetwork.host[36].wlan[0].mac.dcf.channelAccess.contention backoffActive:vector ETV
attr interpolationmode sample-hold
attr source count(backoffStarted)-count(backoffStopped)
attr title "backoff active, vector"
vector 346 FloodingNetwork.host[36].wlan[0].mac packetReceivedFromLower:vector(packetBytes) ETV
attr interpolationmode none
attr title "packets received from lower layer, vector(packetBytes)"
vector 347 FloodingNetwork.host[36].wlan[0].mac packetDrop:vector(packetBytes) ETV
attr interpolationmode none
attr source packetDropped
attr title "packet drops, vector(packetBytes)"
vector 348 FloodingNetwork.host[36].wlan[0].mac packetDropIncorrectlyReceived:vector(packetBytes) ETV
attr interpolationmode none
attr source packetDropReasonIsIncorrectlyReceived(packetDropped)
attr title "packet drops: incorrectly received, vector(packetBytes)"
vector 349 FloodingNetwork.host[22].wlan[0].mac packetReceivedFromLower:vector(packetBytes) ETV
attr interpolationmode none
attr title "packets received from lower layer, vector(packetBytes)"
vector 350 FloodingNetwork.host[22].wlan[0].mac packetDrop:vector(packetBytes) ETV
attr interpolationmode none
attr source packetDropped
attr title "packet drops, vector(packetBytes)"
vector 351 FloodingNetwork.host[22].wlan[0].mac packetDropIncorrectlyReceived:vector(packetBytes) ETV
attr interpolationmode none
attr source packetDropReasonIsIncorrectlyReceived(packetDropped)
attr title "packet drops: incorrectly received, vector(packetBytes)"
vector 352 FloodingNetwork.host[18].wlan[0].mac.dcf packetSentToPeer:vector(packetBytes) ETV
attr interpolationmode none
attr title "packets sent, vector(packetBytes)"
vector 353 FloodingNetwork.host[18].wlan[0].mac.dcf packetSentToPeerMulticast:vector(packetBytes) ETV
attr interpolationmode none
attr source ieee80211Multicast(packetSentToPeer)
attr title "packets sent: multicast, vector(packetBytes)"
vector 354 FloodingNetwork.host[18].wlan[0].mac.dcf packetSentToPeerBroadcast:vector(packetBytes) ETV
attr interpolationmode none
attr source ieee80211Broadcast(packetSentToPeer)
attr title "packets sent: broadcast , vector(packetBytes)"
vector 355 FloodingNetwork.host[18].wlan[0].mac.dcf packetSentToPeerWithoutRetry:vector(packetBytes) ETV
attr interpolationmode none
attr source ieee80211NotRetry(packetSentToPeer)
attr title "packets sent: without retry, vector(packetBytes)"
vector 356 FloodingNetwork.host[18].wlan[0].mac.dcf.channelAccess.inProgressFrames queueingTime:vector ETV
attr interpolationmode none
attr source queueingTime(packetDequeued)
attr title "queueing times, vector"
vector 357 FloodingNetwork.host[11].wlan[0].mac packetReceivedFromLower:vector(packetBytes) ETV
attr interpolationmode none
attr title "packets received from lower layer, vector(packetBytes)"
vector 358 FloodingNetwork.host[11].wlan[0].mac.dcf packetReceivedFromPeer:vector(packetBytes) ETV
attr interpolationmode none
attr title "packets received, vector(packetBytes)"
vector 359 FloodingNetwork.host[11].wlan[0].mac.dcf packetReceivedFromPeerMulticast:vector(packetBytes) ETV
attr interpolationmode none
attr source ieee80211Multicast(packetReceivedFromPeer)
attr title "packets received: multicast, vector(packetBytes)"
vector 360 FloodingNetwork.host[11].wlan[0].mac.dcf packetReceivedFromPeerBroadcast:vector(packetBytes) ETV
attr interpolationmode none
attr source ieee80211Broadcast(packetReceivedFromPeer)
attr title "packets received: broadcast, vector(packetBytes)"
vector 361 FloodingNetwork.host[11].wlan[0].mac.dcf packetReceivedFromPeerWithoutRetry:vector(packetBytes) ETV
attr interpolationmode none
attr source ieee80211NotRetry(packetReceivedFromPeer)
attr title "packets received: without retry, vector(packetBytes)"
vector 362 FloodingNetwork.host[11].wlan[0].mac packetSentToUpper:vector(packetBytes) ETV
attr interpolationmode none
attr title "packets sent to upper layer, vector(packetBytes)"
vector 363 FloodingNetwork.host[11].wlan[0].mac packetReceivedFromUpper:vector(packetBytes) ETV
attr interpolationmode none
attr title "packets received from upper layer, vector(packetBytes)"
vector 364 FloodingNetwork.host[11].wlan[0].mac.dcf.channelAccess.pendingQueue packetPushed:vector(packetBytes) ETV
attr interpolationmode none
attr title "packet pushed, vector(packetBytes)"
vector 365 FloodingNetwork.host[11].wlan[0].mac.dcf.channelAccess.pendingQueue queueLength:vector ETV
attr interpolationmode sample-hold
attr source "count(packetPushed) - count(packetPopped) - count(packetRemoved) - count(packetDropped)"
attr title "queue length, vector"
vector 366 FloodingNetwork.host[11].wlan[0].mac.dcf.channelAccess.contention backoffPeriodGenerated:vector ETV
attr interpolationmode none
attr title "backoff periods, vector"
vector 367 FloodingNetwork.host[11].wlan[0].mac.dcf.channelAccess.contention backoffActive:vector ETV
attr interpolationmode sample-hold
attr source count(backoffStarted)-count(backoffStopped)
attr title "backoff active, vector"
vector 368 FloodingNetwork.host[24].wlan[0].mac packetReceivedFromLower:vector(packetBytes) ETV
attr interpolationmode none
attr title "packets received from lower layer, vector(packetBytes)"
vector 369 FloodingNetwork.host[24].wlan[0].mac.dcf packetReceivedFromPeer:vector(packetBytes) ETV
attr interpolationmode none
attr title "packets received, vector(packetBytes)"
vector 370 FloodingNetwork.host[24].wlan[0].mac.dcf packetReceivedFromPeerMulticast:vector(packetBytes) ETV
attr interpolationmode none
attr source ieee80211Multicast(packetReceivedFromPeer)
attr title "packets received: multicast, vector(packetBytes)"
vector 371 FloodingNetwork.host[24].wlan[0].mac.dcf packetReceivedFromPeerBroadcast:vector(packetBytes) ETV
attr interpolationmode none
attr source ieee80211Broadcast(packetReceivedFromPeer)
attr title "packets received: broadcast, vector(packetBytes)"
vector 372 FloodingNetwork.host[24].wlan[0].mac.dcf packetReceivedFromPeerWithoutRetry:vector(packetBytes) ETV
attr interpolationmode none
attr source ieee80211NotRetry(packetReceivedFromPeer)
attr title "packets received: without retry, vector(packetBytes)"
vector 373 FloodingNetwork.host[24].wlan[0].mac packetSentToUpper:vector(packetBytes) ETV
attr interpolationmode none
attr title "packets sent to upper layer, vector(packetBytes)"
vector 374 FloodingNetwork.host[24].wlan[0].mac packetReceivedFromUpper:vector(packetBytes) ETV
attr interpolationmode none
attr title "packets received from upper layer, vector(packetBytes)"
vector 375 FloodingNetwork.host[24].wlan[0].mac.dcf.channelAccess.pendingQueue packetPushed:vector(packetBytes) ETV
attr interpolationmode none
attr title "packet pushed, vector(packetBytes)"
vector 376 FloodingNetwork.host[24].wlan[0].mac.dcf.channelAccess.pendingQueue queueLength:vector ETV
attr interpolationmode sample-hold
attr source "count(packetPushed) - count(packetPopped) - count(packetRemoved) - count(packetDropped)"
attr title "queue length, vector"
vector 377 FloodingNetwork.host[24].wlan[0].mac.dcf.channelAccess.contention backoffPeriodGenerated:vector ETV
attr interpolationmode none
attr title "backoff periods, vector"
[...]
696	211148 52 1996 2658 0.004401446117 0.005457446117 2 0 1 1 1
697	211200 32 1996 1996 0.004401446117 0.004401446117 1 1000000 1000000 1000000 1000000000000
698	211232 28 1996 1996 0.004401446117 0.004401446117 1 108 108 108 11664
699	211260 52 1996 2658 0.004401446117 0.005457446117 2 0 1 1 1
700	211312 104 1997 2659 0.004401446117 0.005457446117 4 0 2 4 6
701	211416 28 2038 2038 0.004429961616 0.004429961616 1 108 108 108 11664
702	211444 28 2038 2038 0.004429961616 0.004429961616 1 108 108 108 11664
703	211472 28 2038 2038 0.004429961616 0.004429961616 1 108 108 108 11664
704	211500 28 2038 2038 0.004429961616 0.004429961616 1 108 108 108 11664
705	211528 33 2038 2038 0.004429961616 0.004429961616 1 0.001056 0.001056 0.001056 1.115136e-06
706	211561 28 2041 2041 0.004430027806 0.004430027806 1 108 108 108 11664
707	211589 28 2041 2041 0.004430027806 0.004430027806 1 108 108 108 11664
708	211617 28 2041 2041 0.004430027806 0.004430027806 1 108 108 108 11664
709	211645 28 2041 2041 0.004430027806 0.004430027806 1 108 108 108 11664
710	211673 28 2041 2041 0.004430027806 0.004430027806 1 108 108 108 11664
711	211701 27 2041 2041 0.004430027806 0.004430027806 1 80 80 80 6400
712	211728 27 2045 2045 0.004430027806 0.004430027806 1 80 80 80 6400
713	211755 28 2045 2045 0.004430027806 0.004430027806 1 108 108 108 11664
714	211783 52 2045 2176 0.004430027806 0.004580027806 2 0 1 1 1
715	211835 26 2045 2045 0.004430027806 0.004430027806 1 5 5 5 25
716	211861 52 2045 2175 0.004430027806 0.004580027806 2 0 1 1 1
717	211913 28 2085 2085 0.004461429388 0.004461429388 1 108 108 108 11664
718	211941 32 2085 2085 0.004461429388 0.004461429388 1 0.00043 0.00043 0.00043 1.849e-07
719	211973 52 2085 2701 0.004461429388 0.005517429388 2 0 1 1 1
720	212025 32 2085 2085 0.004461429388 0.004461429388 1 1000000 1000000 1000000 1000000000000
721	212057 28 2085 2085 0.004461429388 0.004461429388 1 108 108 108 11664
722	212085 52 2085 2701 0.004461429388 0.005517429388 2 0 1 1 1
723	212137 104 2086 2702 0.004461429388 0.005517429388 4 0 2 4 6
724	212241 26 2127 2127 0.004499499896 0.004499499896 1 0 0 0 0
725	212267 28 2176 2176 0.004580027806 0.004580027806 1 108 108 108 11664
726	212295 32 2176 2176 0.004580027806 0.004580027806 1 0.00015 0.00015 0.00015 2.25e-08
727	212327 26 2176 2176 0.004580027806 0.004580027806 1 1 1 1 1
728	212353 32 2176 2176 0.004580027806 0.004580027806 1 1000000 1000000 1000000 1000000000000
729	212385 28 2176 2176 0.004580027806 0.004580027806 1 108 108 108 11664
730	212413 26 2176 2176 0.004580027806 0.004580027806 1 1 1 1 1
731	212439 52 2177 2178 0.004580027806 0.004580027806 2 1 2 3 5
732	212491 26 2218 2218 0.004736004227 0.004736004227 1 0 0 0 0
733	212517 24 2223 2223 0.0047360804 0.0047360804 1 0 0 0 0
734	212541 28 2233 2233 0.004778183215 0.004778183215 1 108 108 108 11664
735	212569 28 2233 2233 0.004778183215 0.004778183215 1 108 108 108 11664
736	212597 28 2233 2233 0.004778183215 0.004778183215 1 108 108 108 11664
737	212625 28 2233 2233 0.004778183215 0.004778183215 1 108 108 108 11664
738	212653 28 2233 2233 0.004778183215 0.004778183215 1 108 108 108 11664
739	212681 27 2233 2233 0.004778183215 0.004778183215 1 80 80 80 6400
740	212708 27 2237 2237 0.004778183215 0.004778183215 1 80 80 80 6400
741	212735 28 2237 2237 0.004778183215 0.004778183215 1 108 108 108 11664
742	212763 52 2237 2393 0.004778183215 0.005268183215 2 0 1 1 1
743	212815 27 2237 2237 0.004778183215 0.004778183215 1 22 22 22 484
744	212842 52 2237 2392 0.004778183215 0.005268183215 2 0 1 1 1
745	212894 28 2239 2239 0.004778199799 0.004778199799 1 108 108 108 11664
746	212922 28 2239 2239 0.004778199799 0.004778199799 1 108 108 108 11664
747	212950 28 2239 2239 0.004778199799 0.004778199799 1 108 108 108 11664
748	212978 27 2249 2249 0.00477822064 0.00477822064 1 108 108 108 11664
749	213005 27 2249 2249 0.00477822064 0.00477822064 1 108 108 108 11664
750	213032 26 2282 2282 0.004799771714 0.004799771714 1 0 0 0 0
751	213058 28 2287 2287 0.004920889781 0.004920889781 1 108 108 108 11664
752	213086 28 2287 2287 0.004920889781 0.004920889781 1 108 108 108 11664
753	213114 28 2287 2287 0.004920889781 0.004920889781 1 108 108 108 11664
754	213142 28 2287 2287 0.004920889781 0.004920889781 1 108 108 108 11664
755	213170 33 2287 2287 0.004920889781 0.004920889781 1 0.001056 0.001056 0.001056 1.115136e-06
756	213203 28 2290 2290 0.004920972521 0.004920972521 1 108 108 108 11664
757	213231 28 2290 2290 0.004920972521 0.004920972521 1 108 108 108 11664
758	213259 28 2290 2290 0.004920972521 0.004920972521 1 108 108 108 11664
759	213287 28 2292 2292 0.004920973156 0.004920973156 1 108 108 108 11664
760	213315 28 2292 2292 0.004920973156 0.004920973156 1 108 108 108 11664
761	213343 28 2292 2292 0.004920973156 0.004920973156 1 108 108 108 11664
762	213371 28 2292 2292 0.004920973156 0.004920973156 1 108 108 108 11664
763	213399 27 2292 2292 0.004920973156 0.004920973156 1 80 80 80 6400
764	213426 27 2334 2334 0.00505170768 0.00505170768 1 108 108 108 11664
765	213453 27 2334 2334 0.00505170768 0.00505170768 1 108 108 108 11664
766	213480 27 2334 2334 0.00505170768 0.00505170768 1 108 108 108 11664
767	213507 27 2334 2334 0.00505170768 0.00505170768 1 108 108 108 11664
768	213534 32 2334 2334 0.00505170768 0.00505170768 1 0.001056 0.001056 0.001056 1.115136e-06
769	213566 27 2337 2337 0.00505177411 0.00505177411 1 108 108 108 11664
770	213593 27 2337 2337 0.00505177411 0.00505177411 1 108 108 108 11664
771	213620 27 2337 2337 0.00505177411 0.00505177411 1 108 108 108 11664
772	213647 27 2337 2337 0.00505177411 0.00505177411 1 108 108 108 11664
773	213674 26 2337 2337 0.00505177411 0.00505177411 1 80 80 80 6400
774	213700 25 2340 2340 0.00505177411 0.00505177411 1 1 1 1 1
775	213725 26 2341 2341 0.00505177411 0.00505177411 1 64 64 64 4096
776	213751 28 2343 2343 0.005051774461 0.005051774461 1 108 108 108 11664
777	213779 28 2343 2343 0.005051774461 0.005051774461 1 108 108 108 11664
778	213807 28 2343 2343 0.005051774461 0.005051774461 1 108 108 108 11664
779	213835 28 2343 2343 0.005051774461 0.005051774461 1 108 108 108 11664
780	213863 27 2343 2343 0.005051774461 0.005051774461 1 80 80 80 6400
781	213890 54 2347 2391 0.005051774461 0.005204774805 2 80 80 160 12800
782	213944 56 2347 2391 0.005051774461 0.005204774805 2 108 108 216 23328
783	214000 52 2347 2391 0.005051774461 0.005204774805 2 1 2 3 5
784	214052 27 2347 2347 0.005051774461 0.005051774461 1 29 29 29 841
785	214079 52 2347 2622 0.005051774461 0.005455928184 2 0 1 1 1
786	214131 28 2350 2350 0.005051807823 0.005051807823 1 108 108 108 11664
787	214159 28 2350 2350 0.005051807823 0.005051807823 1 108 108 108 11664
788	214187 28 2350 2350 0.005051807823 0.005051807823 1 108 108 108 11664
789	214215 28 2352 2352 0.005051827265 0.005051827265 1 108 108 108 11664
790	214243 28 2352 2352 0.005051827265 0.005051827265 1 108 108 108 11664
791	214271 26 2387 2387 0.005204774805 0.005204774805 1 0 0 0 0
792	214297 28 2393 2393 0.005268183215 0.005268183215 1 108 108 108 11664
793	214325 32 2393 2393 0.005268183215 0.005268183215 1 0.00049 0.00049 0.00049 2.401e-07
794	214357 26 2393 2393 0.005268183215 0.005268183215 1 1 1 1 1
795	214383 32 2393 2393 0.005268183215 0.005268183215 1 1000000 1000000 1000000 1000000000000
796	214415 28 2393 2393 0.005268183215 0.005268183215 1 108 108 108 11664
797	214443 26 2393 2393 0.005268183215 0.005268183215 1 1 1 1 1
798	214469 52 2394 2395 0.005268183215 0.005268183215 2 1 2 3 5
799	214521 28 2438 2438 0.005300348438 0.005300348438 1 108 108 108 11664
800	214549 28 2438 2438 0.005300348438 0.005300348438 1 108 108 108 11664
801	214577 28 2438 2438 0.005300348438 0.005300348438 1 108 108 108 11664
802	214605 28 2438 2438 0.005300348438 0.005300348438 1 108 108 108 11664
803	214633 27 2438 2438 0.005300348438 0.005300348438 1 80 80 80 6400
804	214660 26 2525 2525 0.005373732282 0.005373732282 1 0 0 0 0
805	214686 28 2530 2530 0.005391640794 0.005391640794 1 108 108 108 11664
806	214714 28 2530 2530 0.005391640794 0.005391640794 1 108 108 108 11664
807	214742 28 2530 2530 0.005391640794 0.005391640794 1 108 108 108 11664
808	214770 28 2530 2530 0.005391640794 0.005391640794 1 108 108 108 11664
809	214798 33 2530 2530 0.005391640794 0.005391640794 1 0.001056 0.001056 0.001056 1.115136e-06
810	214831 28 2574 2574 0.005431674257 0.005431674257 1 108 108 108 11664
811	214859 28 2574 2574 0.005431674257 0.005431674257 1 108 108 108 11664
812	214887 28 2574 2574 0.005431674257 0.005431674257 1 108 108 108 11664
813	214915 28 2574 2574 0.005431674257 0.005431674257 1 108 108 108 11664
814	214943 33 2574 2574 0.005431674257 0.005431674257 1 0.001056 0.001056 0.001056 1.115136e-06
815	214976 56 2616 2616 0.005455827265 0.005455827265 2 108 108 216 23328
816	215032 78 2616 2616 0.005455827265 0.005455827265 2 0.001790152809 0.003047578717 0.004837731526 1.2492383115882e-05
817	215110 52 2616 2616 0.005455827265 0.005455827265 2 1 2 3 5
818	215162 32 2616 2616 0.005455827265 0.005455827265 1 1000000 1000000 1000000 1000000000000
819	215194 28 2616 2616 0.005455827265 0.005455827265 1 108 108 108 11664
820	215222 26 2616 2616 0.005455827265 0.005455827265 1 1 1 1 1
821	215248 52 2617 2618 0.005455827265 0.005455827265 2 1 2 3 5
822	215300 28 2658 2658 0.005457446117 0.005457446117 1 108 108 108 11664
823	215328 28 2658 2658 0.005457446117 0.005457446117 1 108 108 108 11664
824	215356 28 2658 2658 0.005457446117 0.005457446117 1 108 108 108 11664
825	215384 28 2658 2658 0.005457446117 0.005457446117 1 108 108 108 11664
826	215412 33 2658 2658 0.005457446117 0.005457446117 1 0.001056 0.001056 0.001056 1.115136e-06
827	215445 28 2664 2664 0.005457546179 0.005457546179 1 108 108 108 11664
828	215473 28 2664 2664 0.005457546179 0.005457546179 1 108 108 108 11664
829	215501 28 2664 2664 0.005457546179 0.005457546179 1 108 108 108 11664
830	215529 28 2701 2701 0.005517429388 0.005517429388 1 108 108 108 11664
831	215557 28 2701 2701 0.005517429388 0.005517429388 1 108 108 108 11664
832	215585 28 2701 2701 0.005517429388 0.005517429388 1 108 108 108 11664
833	215613 28 2701 2701 0.005517429388 0.005517429388 1 108 108 108 11664
834	215641 33 2701 2701 0.005517429388 0.005517429388 1 0.001056 0.001056 0.001056 1.115136e-06
835	215674 28 2744 2744 0.005527566401 0.005527566401 1 108 108 108 11664
836	215702 39 2744 2744 0.005527566401 0.005527566401 1 0.001496153907 0.001496153907 0.001496153907 2.2384765134314e-06
837	215741 26 2744 2744 0.005527566401 0.005527566401 1 1 1 1 1
838	215767 32 2744 2744 0.005527566401 0.005527566401 1 1000000 1000000 1000000 1000000000000
839	215799 28 2744 2744 0.005527566401 0.005527566401 1 108 108 108 11664
840	215827 26 2744 2744 0.005527566401 0.005527566401 1 1 1 1 1
841	215853 52 2745 2746 0.005527566401 0.005527566401 2 1 2 3 5
842	215905 56 2787 2787 0.005610370604 0.005610370604 2 108 108 216 23328
843	215961 78 2787 2787 0.005610370604 0.005610370604 2 0.000689397448 0.003387156749 0.004076554197 1.1948099683605e-05
844	216039 52 2787 2787 0.005610370604 0.005610370604 2 1 2 3 5
845	216091 32 2787 2787 0.005610370604 0.005610370604 1 1000000 1000000 1000000 1000000000000
846	216123 28 2787 2787 0.005610370604 0.005610370604 1 108 108 108 11664
847	216151 26 2787 2787 0.005610370604 0.005610370604 1 1 1 1 1
848	216177 52 2788 2789 0.005610370604 0.005610370604 2 1 2 3 5
vector 849 FloodingNetwork.host[0].app[1] throughput:vector ETV
attr source throughput(packetReceived)
attr title "throughput, vector"
attr unit bps
vector 850 FloodingNetwork.host[1].app[1] throughput:vector ETV
attr source throughput(packetReceived)
attr title "throughput, vector"
attr unit bps
vector 851 FloodingNetwork.host[2].app[1] throughput:vector ETV
attr source throughput(packetReceived)
attr title "throughput, vector"
attr unit bps
vector 852 FloodingNetwork.host[3].app[1] throughput:vector ETV
attr source throughput(packetReceived)
attr title "throughput, vector"
attr unit bps
vector 853 FloodingNetwork.host[4].app[1] throughput:vector ETV
attr source throughput(packetReceived)
attr title "throughput, vector"
attr unit bps
vector 854 FloodingNetwork.host[5].app[1] throughput:vector ETV
attr source throughput(packetReceived)
attr title "throughput, vector"
attr unit bps
vector 855 FloodingNetwork.host[6].app[1] throughput:vector ETV
attr source throughput(packetReceived)
attr title "throughput, vector"
attr unit bps
vector 856 FloodingNetwork.host[7].app[1] throughput:vector ETV
attr source throughput(packetReceived)
attr title "throughput, vector"
attr unit bps
vector 857 FloodingNetwork.host[8].app[1] throughput:vector ETV
attr source throughput(packetReceived)
attr title "throughput, vector"
attr unit bps
vector 858 FloodingNetwork.host[9].app[1] throughput:vector ETV
attr source throughput(packetReceived)
attr title "throughput, vector"
attr unit bps
vector 859 FloodingNetwork.host[10].app[1] throughput:vector ETV
attr source throughput(packetReceived)
attr title "throughput, vector"
attr unit bps
vector 860 FloodingNetwork.host[11].app[1] throughput:vector ETV
attr source throughput(packetReceived)
attr title "throughput, vector"
attr unit bps
vector 861 FloodingNetwork.host[12].app[1] throughput:vector ETV
attr source throughput(packetReceived)
attr title "throughput, vector"
attr unit bps
vector 862 FloodingNetwork.host[13].app[1] throughput:vector ETV
attr source throughput(packetReceived)
attr title "throughput, vector"
attr unit bps
vector 863 FloodingNetwork.host[14].app[1] throughput:vector ETV
attr source throughput(packetReceived)
attr title "throughput, vector"
attr unit bps
vector 864 FloodingNetwork.host[15].app[1] throughput:vector ETV
attr source throughput(packetReceived)
attr title "throughput, vector"
attr unit bps
vector 865 FloodingNetwork.host[16].app[1] throughput:vector ETV
attr source throughput(packetReceived)
attr title "throughput, vector"
attr unit bps
vector 866 FloodingNetwork.host[17].app[1] throughput:vector ETV
attr source throughput(packetReceived)
attr title "throughput, vector"
attr unit bps
vector 867 FloodingNetwork.host[18].app[1] throughput:vector ETV
attr source throughput(packetReceived)
attr title "throughput, vector"
attr unit bps
vector 868 FloodingNetwork.host[19].app[1] throughput:vector ETV
attr source throughput(packetReceived)
attr title "throughput, vector"
attr unit bps
vector 869 FloodingNetwork.host[20].app[1] throughput:vector ETV
attr source throughput(packetReceived)
attr title "throughput, vector"
attr unit bps
vector 870 FloodingNetwork.host[21].app[1] throughput:vector ETV
attr source throughput(packetReceived)
attr title "throughput, vector"
attr unit bps
vector 871 FloodingNetwork.host[22].app[1] throughput:vector ETV
attr source throughput(packetReceived)
attr title "throughput, vector"
attr unit bps
vector 872 FloodingNetwork.host[23].app[1] throughput:vector ETV
attr source throughput(packetReceived)
attr title "throughput, vector"
attr unit bps
vector 873 FloodingNetwork.host[24].app[1] throughput:vector ETV
attr source throughput(packetReceived)
attr title "throughput, vector"
attr unit bps
vector 874 FloodingNetwork.host[25].app[1] throughput:vector ETV
attr source throughput(packetReceived)
attr title "throughput, vector"
attr unit bps
vector 875 FloodingNetwork.host[26].app[1] throughput:vector ETV
attr source throughput(packetReceived)
attr title "throughput, vector"
attr unit bps
vector 876 FloodingNetwork.host[27].app[1] throughput:vector ETV
attr source throughput(packetReceived)
attr title "throughput, vector"
attr unit bps
vector 877 FloodingNetwork.host[28].app[1] throughput:vector ETV
attr source throughput(packetReceived)
attr title "throughput, vector"
attr unit bps
vector 878 FloodingNetwork.host[29].app[1] throughput:vector ETV
attr source throughput(packetReceived)
attr title "throughput, vector"
attr unit bps
vector 879 FloodingNetwork.host[30].app[1] throughput:vector ETV
attr source throughput(packetReceived)
attr title "throughput, vector"
attr unit bps
vector 880 FloodingNetwork.host[31].app[1] throughput:vector ETV
attr source throughput(packetReceived)
attr title "throughput, vector"
attr unit bps
vector 881 FloodingNetwork.host[32].app[1] throughput:vector ETV
attr source throughput(packetReceived)
attr title "throughput, vector"
attr unit bps
vector 882 FloodingNetwork.host[33].app[1] throughput:vector ETV
attr source throughput(packetReceived)
attr title "throughput, vector"
attr unit bps
vector 883 FloodingNetwork.host[34].app[1] throughput:vector ETV
attr source throughput(packetReceived)
attr title "throughput, vector"
attr unit bps
vector 884 FloodingNetwork.host[35].app[1] throughput:vector ETV
attr source throughput(packetReceived)
attr title "throughput, vector"
attr unit bps
vector 885 FloodingNetwork.host[36].app[1] throughput:vector ETV
attr source throughput(packetReceived)
attr title "throughput, vector"
attr unit bps
vector 886 FloodingNetwork.host[37].app[1] throughput:vector ETV
attr source throughput(packetReceived)
attr title "throughput, vector"
attr unit bps
vector 887 FloodingNetwork.host[38].app[1] throughput:vector ETV
attr source throughput(packetReceived)
attr title "throughput, vector"
attr unit bps
vector 888 FloodingNetwork.host[39].app[1] throughput:vector ETV
attr source throughput(packetReceived)
attr title "throughput, vector"
attr unit bps
849	222219 26 2816 2816 0.005610766237 0.005610766237 1 0 0 0 0
850	222245 26 2816 2816 0.005610766237 0.005610766237 1 0 0 0 0
851	222271 26 2816 2816 0.005610766237 0.005610766237 1 0 0 0 0
852	222297 26 2816 2816 0.005610766237 0.005610766237 1 0 0 0 0
853	222323 26 2816 2816 0.005610766237 0.005610766237 1 0 0 0 0
854	222349 26 2816 2816 0.005610766237 0.005610766237 1 0 0 0 0
855	222375 26 2816 2816 0.005610766237 0.005610766237 1 0 0 0 0
856	222401 26 2816 2816 0.005610766237 0.005610766237 1 0 0 0 0
857	222427 26 2816 2816 0.005610766237 0.005610766237 1 0 0 0 0
858	222453 40 2816 2816 0.005610766237 0.005610766237 1 91253.133417613 91253.133417613 91253.133417613 8327134358.5327
859	222493 26 2816 2816 0.005610766237 0.005610766237 1 0 0 0 0
860	222519 26 2816 2816 0.005610766237 0.005610766237 1 0 0 0 0
861	222545 26 2816 2816 0.005610766237 0.005610766237 1 0 0 0 0
862	222571 26 2816 2816 0.005610766237 0.005610766237 1 0 0 0 0
863	222597 26 2816 2816 0.005610766237 0.005610766237 1 0 0 0 0
864	222623 26 2816 2816 0.005610766237 0.005610766237 1 0 0 0 0
865	222649 26 2816 2816 0.005610766237 0.005610766237 1 0 0 0 0
866	222675 26 2816 2816 0.005610766237 0.005610766237 1 0 0 0 0
867	222701 26 2816 2816 0.005610766237 0.005610766237 1 0 0 0 0
868	222727 26 2816 2816 0.005610766237 0.005610766237 1 0 0 0 0
869	222753 26 2816 2816 0.005610766237 0.005610766237 1 0 0 0 0
870	222779 26 2816 2816 0.005610766237 0.005610766237 1 0 0 0 0
871	222805 26 2816 2816 0.005610766237 0.005610766237 1 0 0 0 0
872	222831 26 2816 2816 0.005610766237 0.005610766237 1 0 0 0 0
873	222857 26 2816 2816 0.005610766237 0.005610766237 1 0 0 0 0
874	222883 26 2816 2816 0.005610766237 0.005610766237 1 0 0 0 0
875	222909 26 2816 2816 0.005610766237 0.005610766237 1 0 0 0 0
876	222935 26 2816 2816 0.005610766237 0.005610766237 1 0 0 0 0
877	222961 26 2816 2816 0.005610766237 0.005610766237 1 0 0 0 0
878	222987 26 2816 2816 0.005610766237 0.005610766237 1 0 0 0 0
879	223013 26 2816 2816 0.005610766237 0.005610766237 1 0 0 0 0
880	223039 26 2816 2816 0.005610766237 0.005610766237 1 0 0 0 0
881	223065 26 2816 2816 0.005610766237 0.005610766237 1 0 0 0 0
882	223091 26 2816 2816 0.005610766237 0.005610766237 1 0 0 0 0
883	223117 26 2816 2816 0.005610766237 0.005610766237 1 0 0 0 0
884	223143 26 2816 2816 0.005610766237 0.005610766237 1 0 0 0 0
885	223169 26 2816 2816 0.005610766237 0.005610766237 1 0 0 0 0
886	223195 26 2816 2816 0.005610766237 0.005610766237 1 0 0 0 0
887	223221 26 2816 2816 0.005610766237 0.005610766237 1 0 0 0 0
888	223247 26 2816 2816 0.005610766237 0.005610766237 1 0 0 0 0

